
---------- Begin Simulation Statistics ----------
final_tick                               19790311375170                       # Number of ticks from beginning of simulation (restored from checkpoints and never reset)
host_inst_rate                                 107525                       # Simulator instruction rate (inst/s)
host_mem_usage                               17063512                       # Number of bytes of host memory used
host_op_rate                                   210448                       # Simulator op (including micro ops) rate (op/s)
host_seconds                                  9300.11                       # Real time elapsed on the host
host_tick_rate                                5103845                       # Simulator tick rate (ticks/s)
sim_freq                                 1000000000000                       # Frequency of simulated ticks
sim_insts                                   999996949                       # Number of instructions simulated
sim_ops                                    1957185271                       # Number of ops (including micro ops) simulated
sim_seconds                                  0.047466                       # Number of seconds simulated
sim_ticks                                 47466320166                       # Number of ticks simulated
system.cpu0.Branches                                1                       # Number of branches fetched
system.cpu0.committedInsts                         15                       # Number of instructions committed
system.cpu0.committedOps                           20                       # Number of ops (including micro ops) committed
system.cpu0.idle_fraction                           0                       # Percentage of idle cycles
system.cpu0.l2bus.snoop_filter.hit_multi_requests            2                       # Number of requests hitting in the snoop filter with multiple (>1) holders of the requested data.
system.cpu0.l2bus.snoop_filter.hit_multi_snoops            0                       # Number of snoops hitting in the snoop filter with multiple (>1) holders of the requested data.
system.cpu0.l2bus.snoop_filter.hit_single_requests         6273                       # Number of requests hitting in the snoop filter with a single holder of the requested data.
system.cpu0.l2bus.snoop_filter.hit_single_snoops            0                       # Number of snoops hitting in the snoop filter with a single holder of the requested data.
system.cpu0.l2bus.snoop_filter.tot_requests        13357                       # Total number of requests made to the snoop filter.
system.cpu0.l2bus.snoop_filter.tot_snoops            0                       # Total number of snoops made to the snoop filter.
system.cpu0.mmucache.mmubus.snoop_filter.hit_multi_requests            0                       # Number of requests hitting in the snoop filter with multiple (>1) holders of the requested data.
system.cpu0.mmucache.mmubus.snoop_filter.hit_multi_snoops            0                       # Number of snoops hitting in the snoop filter with multiple (>1) holders of the requested data.
system.cpu0.mmucache.mmubus.snoop_filter.hit_single_requests            0                       # Number of requests hitting in the snoop filter with a single holder of the requested data.
system.cpu0.mmucache.mmubus.snoop_filter.hit_single_snoops            0                       # Number of snoops hitting in the snoop filter with a single holder of the requested data.
system.cpu0.mmucache.mmubus.snoop_filter.tot_requests            0                       # Total number of requests made to the snoop filter.
system.cpu0.mmucache.mmubus.snoop_filter.tot_snoops            0                       # Total number of snoops made to the snoop filter.
system.cpu0.not_idle_fraction                       1                       # Percentage of non-idle cycles
system.cpu0.numCycles                              30                       # number of cpu cycles simulated
system.cpu0.numWorkItemsCompleted                   0                       # number of work items this cpu completed
system.cpu0.numWorkItemsStarted                     0                       # number of work items this cpu started
system.cpu0.num_busy_cycles                        30                       # Number of busy cycles
system.cpu0.num_cc_register_reads                   5                       # number of times the CC registers were read
system.cpu0.num_cc_register_writes                  2                       # number of times the CC registers were written
system.cpu0.num_conditional_control_insts            1                       # number of instructions that are conditional controls
system.cpu0.num_fp_alu_accesses                     0                       # Number of float alu accesses
system.cpu0.num_fp_insts                            0                       # number of float instructions
system.cpu0.num_fp_register_reads                   0                       # number of times the floating registers were read
system.cpu0.num_fp_register_writes                  0                       # number of times the floating registers were written
system.cpu0.num_func_calls                          0                       # number of times a function call or return occured
system.cpu0.num_idle_cycles                         0                       # Number of idle cycles
system.cpu0.num_int_alu_accesses                   20                       # Number of integer alu accesses
system.cpu0.num_int_insts                          20                       # number of integer instructions
system.cpu0.num_int_register_reads                 49                       # number of times the integer registers were read
system.cpu0.num_int_register_writes                15                       # number of times the integer registers were written
system.cpu0.num_load_insts                          6                       # Number of load instructions
system.cpu0.num_mem_refs                           10                       # number of memory refs
system.cpu0.num_store_insts                         4                       # Number of store instructions
system.cpu0.num_vec_alu_accesses                    0                       # Number of vector alu accesses
system.cpu0.num_vec_insts                           0                       # number of vector instructions
system.cpu0.num_vec_register_reads                  0                       # number of times the vector registers were read
system.cpu0.num_vec_register_writes                 0                       # number of times the vector registers were written
system.cpu0.op_class::No_OpClass                    0      0.00%      0.00% # Class of executed instruction
system.cpu0.op_class::IntAlu                       10     50.00%     50.00% # Class of executed instruction
system.cpu0.op_class::IntMult                       0      0.00%     50.00% # Class of executed instruction
system.cpu0.op_class::IntDiv                        0      0.00%     50.00% # Class of executed instruction
system.cpu0.op_class::FloatAdd                      0      0.00%     50.00% # Class of executed instruction
system.cpu0.op_class::FloatCmp                      0      0.00%     50.00% # Class of executed instruction
system.cpu0.op_class::FloatCvt                      0      0.00%     50.00% # Class of executed instruction
system.cpu0.op_class::FloatMult                     0      0.00%     50.00% # Class of executed instruction
system.cpu0.op_class::FloatMultAcc                  0      0.00%     50.00% # Class of executed instruction
system.cpu0.op_class::FloatDiv                      0      0.00%     50.00% # Class of executed instruction
system.cpu0.op_class::FloatMisc                     0      0.00%     50.00% # Class of executed instruction
system.cpu0.op_class::FloatSqrt                     0      0.00%     50.00% # Class of executed instruction
system.cpu0.op_class::SimdAdd                       0      0.00%     50.00% # Class of executed instruction
system.cpu0.op_class::SimdAddAcc                    0      0.00%     50.00% # Class of executed instruction
system.cpu0.op_class::SimdAlu                       0      0.00%     50.00% # Class of executed instruction
system.cpu0.op_class::SimdCmp                       0      0.00%     50.00% # Class of executed instruction
system.cpu0.op_class::SimdCvt                       0      0.00%     50.00% # Class of executed instruction
system.cpu0.op_class::SimdMisc                      0      0.00%     50.00% # Class of executed instruction
system.cpu0.op_class::SimdMult                      0      0.00%     50.00% # Class of executed instruction
system.cpu0.op_class::SimdMultAcc                   0      0.00%     50.00% # Class of executed instruction
system.cpu0.op_class::SimdShift                     0      0.00%     50.00% # Class of executed instruction
system.cpu0.op_class::SimdShiftAcc                  0      0.00%     50.00% # Class of executed instruction
system.cpu0.op_class::SimdDiv                       0      0.00%     50.00% # Class of executed instruction
system.cpu0.op_class::SimdSqrt                      0      0.00%     50.00% # Class of executed instruction
system.cpu0.op_class::SimdFloatAdd                  0      0.00%     50.00% # Class of executed instruction
system.cpu0.op_class::SimdFloatAlu                  0      0.00%     50.00% # Class of executed instruction
system.cpu0.op_class::SimdFloatCmp                  0      0.00%     50.00% # Class of executed instruction
system.cpu0.op_class::SimdFloatCvt                  0      0.00%     50.00% # Class of executed instruction
system.cpu0.op_class::SimdFloatDiv                  0      0.00%     50.00% # Class of executed instruction
system.cpu0.op_class::SimdFloatMisc                 0      0.00%     50.00% # Class of executed instruction
system.cpu0.op_class::SimdFloatMult                 0      0.00%     50.00% # Class of executed instruction
system.cpu0.op_class::SimdFloatMultAcc              0      0.00%     50.00% # Class of executed instruction
system.cpu0.op_class::SimdFloatSqrt                 0      0.00%     50.00% # Class of executed instruction
system.cpu0.op_class::SimdReduceAdd                 0      0.00%     50.00% # Class of executed instruction
system.cpu0.op_class::SimdReduceAlu                 0      0.00%     50.00% # Class of executed instruction
system.cpu0.op_class::SimdReduceCmp                 0      0.00%     50.00% # Class of executed instruction
system.cpu0.op_class::SimdFloatReduceAdd            0      0.00%     50.00% # Class of executed instruction
system.cpu0.op_class::SimdFloatReduceCmp            0      0.00%     50.00% # Class of executed instruction
system.cpu0.op_class::SimdAes                       0      0.00%     50.00% # Class of executed instruction
system.cpu0.op_class::SimdAesMix                    0      0.00%     50.00% # Class of executed instruction
system.cpu0.op_class::SimdSha1Hash                  0      0.00%     50.00% # Class of executed instruction
system.cpu0.op_class::SimdSha1Hash2                 0      0.00%     50.00% # Class of executed instruction
system.cpu0.op_class::SimdSha256Hash                0      0.00%     50.00% # Class of executed instruction
system.cpu0.op_class::SimdSha256Hash2               0      0.00%     50.00% # Class of executed instruction
system.cpu0.op_class::SimdShaSigma2                 0      0.00%     50.00% # Class of executed instruction
system.cpu0.op_class::SimdShaSigma3                 0      0.00%     50.00% # Class of executed instruction
system.cpu0.op_class::SimdPredAlu                   0      0.00%     50.00% # Class of executed instruction
system.cpu0.op_class::MemRead                       6     30.00%     80.00% # Class of executed instruction
system.cpu0.op_class::MemWrite                      4     20.00%    100.00% # Class of executed instruction
system.cpu0.op_class::FloatMemRead                  0      0.00%    100.00% # Class of executed instruction
system.cpu0.op_class::FloatMemWrite                 0      0.00%    100.00% # Class of executed instruction
system.cpu0.op_class::IprAccess                     0      0.00%    100.00% # Class of executed instruction
system.cpu0.op_class::InstPrefetch                  0      0.00%    100.00% # Class of executed instruction
system.cpu0.op_class::total                        20                       # Class of executed instruction
system.cpu0.workload.numSyscalls                    0                       # Number of system calls
system.cpu1.Branches                                1                       # Number of branches fetched
system.cpu1.committedInsts                         15                       # Number of instructions committed
system.cpu1.committedOps                           20                       # Number of ops (including micro ops) committed
system.cpu1.idle_fraction                           0                       # Percentage of idle cycles
system.cpu1.l2bus.snoop_filter.hit_multi_requests            2                       # Number of requests hitting in the snoop filter with multiple (>1) holders of the requested data.
system.cpu1.l2bus.snoop_filter.hit_multi_snoops            0                       # Number of snoops hitting in the snoop filter with multiple (>1) holders of the requested data.
system.cpu1.l2bus.snoop_filter.hit_single_requests         6273                       # Number of requests hitting in the snoop filter with a single holder of the requested data.
system.cpu1.l2bus.snoop_filter.hit_single_snoops            0                       # Number of snoops hitting in the snoop filter with a single holder of the requested data.
system.cpu1.l2bus.snoop_filter.tot_requests        13357                       # Total number of requests made to the snoop filter.
system.cpu1.l2bus.snoop_filter.tot_snoops            0                       # Total number of snoops made to the snoop filter.
system.cpu1.mmucache.mmubus.snoop_filter.hit_multi_requests            0                       # Number of requests hitting in the snoop filter with multiple (>1) holders of the requested data.
system.cpu1.mmucache.mmubus.snoop_filter.hit_multi_snoops            0                       # Number of snoops hitting in the snoop filter with multiple (>1) holders of the requested data.
system.cpu1.mmucache.mmubus.snoop_filter.hit_single_requests            0                       # Number of requests hitting in the snoop filter with a single holder of the requested data.
system.cpu1.mmucache.mmubus.snoop_filter.hit_single_snoops            0                       # Number of snoops hitting in the snoop filter with a single holder of the requested data.
system.cpu1.mmucache.mmubus.snoop_filter.tot_requests            0                       # Total number of requests made to the snoop filter.
system.cpu1.mmucache.mmubus.snoop_filter.tot_snoops            0                       # Total number of snoops made to the snoop filter.
system.cpu1.not_idle_fraction                       1                       # Percentage of non-idle cycles
system.cpu1.numCycles                              30                       # number of cpu cycles simulated
system.cpu1.numWorkItemsCompleted                   0                       # number of work items this cpu completed
system.cpu1.numWorkItemsStarted                     0                       # number of work items this cpu started
system.cpu1.num_busy_cycles                        30                       # Number of busy cycles
system.cpu1.num_cc_register_reads                   5                       # number of times the CC registers were read
system.cpu1.num_cc_register_writes                  2                       # number of times the CC registers were written
system.cpu1.num_conditional_control_insts            1                       # number of instructions that are conditional controls
system.cpu1.num_fp_alu_accesses                     0                       # Number of float alu accesses
system.cpu1.num_fp_insts                            0                       # number of float instructions
system.cpu1.num_fp_register_reads                   0                       # number of times the floating registers were read
system.cpu1.num_fp_register_writes                  0                       # number of times the floating registers were written
system.cpu1.num_func_calls                          0                       # number of times a function call or return occured
system.cpu1.num_idle_cycles                         0                       # Number of idle cycles
system.cpu1.num_int_alu_accesses                   20                       # Number of integer alu accesses
system.cpu1.num_int_insts                          20                       # number of integer instructions
system.cpu1.num_int_register_reads                 49                       # number of times the integer registers were read
system.cpu1.num_int_register_writes                15                       # number of times the integer registers were written
system.cpu1.num_load_insts                          6                       # Number of load instructions
system.cpu1.num_mem_refs                           10                       # number of memory refs
system.cpu1.num_store_insts                         4                       # Number of store instructions
system.cpu1.num_vec_alu_accesses                    0                       # Number of vector alu accesses
system.cpu1.num_vec_insts                           0                       # number of vector instructions
system.cpu1.num_vec_register_reads                  0                       # number of times the vector registers were read
system.cpu1.num_vec_register_writes                 0                       # number of times the vector registers were written
system.cpu1.op_class::No_OpClass                    0      0.00%      0.00% # Class of executed instruction
system.cpu1.op_class::IntAlu                       10     50.00%     50.00% # Class of executed instruction
system.cpu1.op_class::IntMult                       0      0.00%     50.00% # Class of executed instruction
system.cpu1.op_class::IntDiv                        0      0.00%     50.00% # Class of executed instruction
system.cpu1.op_class::FloatAdd                      0      0.00%     50.00% # Class of executed instruction
system.cpu1.op_class::FloatCmp                      0      0.00%     50.00% # Class of executed instruction
system.cpu1.op_class::FloatCvt                      0      0.00%     50.00% # Class of executed instruction
system.cpu1.op_class::FloatMult                     0      0.00%     50.00% # Class of executed instruction
system.cpu1.op_class::FloatMultAcc                  0      0.00%     50.00% # Class of executed instruction
system.cpu1.op_class::FloatDiv                      0      0.00%     50.00% # Class of executed instruction
system.cpu1.op_class::FloatMisc                     0      0.00%     50.00% # Class of executed instruction
system.cpu1.op_class::FloatSqrt                     0      0.00%     50.00% # Class of executed instruction
system.cpu1.op_class::SimdAdd                       0      0.00%     50.00% # Class of executed instruction
system.cpu1.op_class::SimdAddAcc                    0      0.00%     50.00% # Class of executed instruction
system.cpu1.op_class::SimdAlu                       0      0.00%     50.00% # Class of executed instruction
system.cpu1.op_class::SimdCmp                       0      0.00%     50.00% # Class of executed instruction
system.cpu1.op_class::SimdCvt                       0      0.00%     50.00% # Class of executed instruction
system.cpu1.op_class::SimdMisc                      0      0.00%     50.00% # Class of executed instruction
system.cpu1.op_class::SimdMult                      0      0.00%     50.00% # Class of executed instruction
system.cpu1.op_class::SimdMultAcc                   0      0.00%     50.00% # Class of executed instruction
system.cpu1.op_class::SimdShift                     0      0.00%     50.00% # Class of executed instruction
system.cpu1.op_class::SimdShiftAcc                  0      0.00%     50.00% # Class of executed instruction
system.cpu1.op_class::SimdDiv                       0      0.00%     50.00% # Class of executed instruction
system.cpu1.op_class::SimdSqrt                      0      0.00%     50.00% # Class of executed instruction
system.cpu1.op_class::SimdFloatAdd                  0      0.00%     50.00% # Class of executed instruction
system.cpu1.op_class::SimdFloatAlu                  0      0.00%     50.00% # Class of executed instruction
system.cpu1.op_class::SimdFloatCmp                  0      0.00%     50.00% # Class of executed instruction
system.cpu1.op_class::SimdFloatCvt                  0      0.00%     50.00% # Class of executed instruction
system.cpu1.op_class::SimdFloatDiv                  0      0.00%     50.00% # Class of executed instruction
system.cpu1.op_class::SimdFloatMisc                 0      0.00%     50.00% # Class of executed instruction
system.cpu1.op_class::SimdFloatMult                 0      0.00%     50.00% # Class of executed instruction
system.cpu1.op_class::SimdFloatMultAcc              0      0.00%     50.00% # Class of executed instruction
system.cpu1.op_class::SimdFloatSqrt                 0      0.00%     50.00% # Class of executed instruction
system.cpu1.op_class::SimdReduceAdd                 0      0.00%     50.00% # Class of executed instruction
system.cpu1.op_class::SimdReduceAlu                 0      0.00%     50.00% # Class of executed instruction
system.cpu1.op_class::SimdReduceCmp                 0      0.00%     50.00% # Class of executed instruction
system.cpu1.op_class::SimdFloatReduceAdd            0      0.00%     50.00% # Class of executed instruction
system.cpu1.op_class::SimdFloatReduceCmp            0      0.00%     50.00% # Class of executed instruction
system.cpu1.op_class::SimdAes                       0      0.00%     50.00% # Class of executed instruction
system.cpu1.op_class::SimdAesMix                    0      0.00%     50.00% # Class of executed instruction
system.cpu1.op_class::SimdSha1Hash                  0      0.00%     50.00% # Class of executed instruction
system.cpu1.op_class::SimdSha1Hash2                 0      0.00%     50.00% # Class of executed instruction
system.cpu1.op_class::SimdSha256Hash                0      0.00%     50.00% # Class of executed instruction
system.cpu1.op_class::SimdSha256Hash2               0      0.00%     50.00% # Class of executed instruction
system.cpu1.op_class::SimdShaSigma2                 0      0.00%     50.00% # Class of executed instruction
system.cpu1.op_class::SimdShaSigma3                 0      0.00%     50.00% # Class of executed instruction
system.cpu1.op_class::SimdPredAlu                   0      0.00%     50.00% # Class of executed instruction
system.cpu1.op_class::MemRead                       6     30.00%     80.00% # Class of executed instruction
system.cpu1.op_class::MemWrite                      4     20.00%    100.00% # Class of executed instruction
system.cpu1.op_class::FloatMemRead                  0      0.00%    100.00% # Class of executed instruction
system.cpu1.op_class::FloatMemWrite                 0      0.00%    100.00% # Class of executed instruction
system.cpu1.op_class::IprAccess                     0      0.00%    100.00% # Class of executed instruction
system.cpu1.op_class::InstPrefetch                  0      0.00%    100.00% # Class of executed instruction
system.cpu1.op_class::total                        20                       # Class of executed instruction
system.cpu1.workload.numSyscalls                    0                       # Number of system calls
system.cpu2.Branches                                1                       # Number of branches fetched
system.cpu2.committedInsts                         15                       # Number of instructions committed
system.cpu2.committedOps                           20                       # Number of ops (including micro ops) committed
system.cpu2.idle_fraction                           0                       # Percentage of idle cycles
system.cpu2.l2bus.snoop_filter.hit_multi_requests            2                       # Number of requests hitting in the snoop filter with multiple (>1) holders of the requested data.
system.cpu2.l2bus.snoop_filter.hit_multi_snoops            0                       # Number of snoops hitting in the snoop filter with multiple (>1) holders of the requested data.
system.cpu2.l2bus.snoop_filter.hit_single_requests         6273                       # Number of requests hitting in the snoop filter with a single holder of the requested data.
system.cpu2.l2bus.snoop_filter.hit_single_snoops            0                       # Number of snoops hitting in the snoop filter with a single holder of the requested data.
system.cpu2.l2bus.snoop_filter.tot_requests        13357                       # Total number of requests made to the snoop filter.
system.cpu2.l2bus.snoop_filter.tot_snoops            0                       # Total number of snoops made to the snoop filter.
system.cpu2.mmucache.mmubus.snoop_filter.hit_multi_requests            0                       # Number of requests hitting in the snoop filter with multiple (>1) holders of the requested data.
system.cpu2.mmucache.mmubus.snoop_filter.hit_multi_snoops            0                       # Number of snoops hitting in the snoop filter with multiple (>1) holders of the requested data.
system.cpu2.mmucache.mmubus.snoop_filter.hit_single_requests            0                       # Number of requests hitting in the snoop filter with a single holder of the requested data.
system.cpu2.mmucache.mmubus.snoop_filter.hit_single_snoops            0                       # Number of snoops hitting in the snoop filter with a single holder of the requested data.
system.cpu2.mmucache.mmubus.snoop_filter.tot_requests            0                       # Total number of requests made to the snoop filter.
system.cpu2.mmucache.mmubus.snoop_filter.tot_snoops            0                       # Total number of snoops made to the snoop filter.
system.cpu2.not_idle_fraction                       1                       # Percentage of non-idle cycles
system.cpu2.numCycles                              30                       # number of cpu cycles simulated
system.cpu2.numWorkItemsCompleted                   0                       # number of work items this cpu completed
system.cpu2.numWorkItemsStarted                     0                       # number of work items this cpu started
system.cpu2.num_busy_cycles                        30                       # Number of busy cycles
system.cpu2.num_cc_register_reads                   5                       # number of times the CC registers were read
system.cpu2.num_cc_register_writes                  2                       # number of times the CC registers were written
system.cpu2.num_conditional_control_insts            1                       # number of instructions that are conditional controls
system.cpu2.num_fp_alu_accesses                     0                       # Number of float alu accesses
system.cpu2.num_fp_insts                            0                       # number of float instructions
system.cpu2.num_fp_register_reads                   0                       # number of times the floating registers were read
system.cpu2.num_fp_register_writes                  0                       # number of times the floating registers were written
system.cpu2.num_func_calls                          0                       # number of times a function call or return occured
system.cpu2.num_idle_cycles                         0                       # Number of idle cycles
system.cpu2.num_int_alu_accesses                   20                       # Number of integer alu accesses
system.cpu2.num_int_insts                          20                       # number of integer instructions
system.cpu2.num_int_register_reads                 49                       # number of times the integer registers were read
system.cpu2.num_int_register_writes                15                       # number of times the integer registers were written
system.cpu2.num_load_insts                          6                       # Number of load instructions
system.cpu2.num_mem_refs                           10                       # number of memory refs
system.cpu2.num_store_insts                         4                       # Number of store instructions
system.cpu2.num_vec_alu_accesses                    0                       # Number of vector alu accesses
system.cpu2.num_vec_insts                           0                       # number of vector instructions
system.cpu2.num_vec_register_reads                  0                       # number of times the vector registers were read
system.cpu2.num_vec_register_writes                 0                       # number of times the vector registers were written
system.cpu2.op_class::No_OpClass                    0      0.00%      0.00% # Class of executed instruction
system.cpu2.op_class::IntAlu                       10     50.00%     50.00% # Class of executed instruction
system.cpu2.op_class::IntMult                       0      0.00%     50.00% # Class of executed instruction
system.cpu2.op_class::IntDiv                        0      0.00%     50.00% # Class of executed instruction
system.cpu2.op_class::FloatAdd                      0      0.00%     50.00% # Class of executed instruction
system.cpu2.op_class::FloatCmp                      0      0.00%     50.00% # Class of executed instruction
system.cpu2.op_class::FloatCvt                      0      0.00%     50.00% # Class of executed instruction
system.cpu2.op_class::FloatMult                     0      0.00%     50.00% # Class of executed instruction
system.cpu2.op_class::FloatMultAcc                  0      0.00%     50.00% # Class of executed instruction
system.cpu2.op_class::FloatDiv                      0      0.00%     50.00% # Class of executed instruction
system.cpu2.op_class::FloatMisc                     0      0.00%     50.00% # Class of executed instruction
system.cpu2.op_class::FloatSqrt                     0      0.00%     50.00% # Class of executed instruction
system.cpu2.op_class::SimdAdd                       0      0.00%     50.00% # Class of executed instruction
system.cpu2.op_class::SimdAddAcc                    0      0.00%     50.00% # Class of executed instruction
system.cpu2.op_class::SimdAlu                       0      0.00%     50.00% # Class of executed instruction
system.cpu2.op_class::SimdCmp                       0      0.00%     50.00% # Class of executed instruction
system.cpu2.op_class::SimdCvt                       0      0.00%     50.00% # Class of executed instruction
system.cpu2.op_class::SimdMisc                      0      0.00%     50.00% # Class of executed instruction
system.cpu2.op_class::SimdMult                      0      0.00%     50.00% # Class of executed instruction
system.cpu2.op_class::SimdMultAcc                   0      0.00%     50.00% # Class of executed instruction
system.cpu2.op_class::SimdShift                     0      0.00%     50.00% # Class of executed instruction
system.cpu2.op_class::SimdShiftAcc                  0      0.00%     50.00% # Class of executed instruction
system.cpu2.op_class::SimdDiv                       0      0.00%     50.00% # Class of executed instruction
system.cpu2.op_class::SimdSqrt                      0      0.00%     50.00% # Class of executed instruction
system.cpu2.op_class::SimdFloatAdd                  0      0.00%     50.00% # Class of executed instruction
system.cpu2.op_class::SimdFloatAlu                  0      0.00%     50.00% # Class of executed instruction
system.cpu2.op_class::SimdFloatCmp                  0      0.00%     50.00% # Class of executed instruction
system.cpu2.op_class::SimdFloatCvt                  0      0.00%     50.00% # Class of executed instruction
system.cpu2.op_class::SimdFloatDiv                  0      0.00%     50.00% # Class of executed instruction
system.cpu2.op_class::SimdFloatMisc                 0      0.00%     50.00% # Class of executed instruction
system.cpu2.op_class::SimdFloatMult                 0      0.00%     50.00% # Class of executed instruction
system.cpu2.op_class::SimdFloatMultAcc              0      0.00%     50.00% # Class of executed instruction
system.cpu2.op_class::SimdFloatSqrt                 0      0.00%     50.00% # Class of executed instruction
system.cpu2.op_class::SimdReduceAdd                 0      0.00%     50.00% # Class of executed instruction
system.cpu2.op_class::SimdReduceAlu                 0      0.00%     50.00% # Class of executed instruction
system.cpu2.op_class::SimdReduceCmp                 0      0.00%     50.00% # Class of executed instruction
system.cpu2.op_class::SimdFloatReduceAdd            0      0.00%     50.00% # Class of executed instruction
system.cpu2.op_class::SimdFloatReduceCmp            0      0.00%     50.00% # Class of executed instruction
system.cpu2.op_class::SimdAes                       0      0.00%     50.00% # Class of executed instruction
system.cpu2.op_class::SimdAesMix                    0      0.00%     50.00% # Class of executed instruction
system.cpu2.op_class::SimdSha1Hash                  0      0.00%     50.00% # Class of executed instruction
system.cpu2.op_class::SimdSha1Hash2                 0      0.00%     50.00% # Class of executed instruction
system.cpu2.op_class::SimdSha256Hash                0      0.00%     50.00% # Class of executed instruction
system.cpu2.op_class::SimdSha256Hash2               0      0.00%     50.00% # Class of executed instruction
system.cpu2.op_class::SimdShaSigma2                 0      0.00%     50.00% # Class of executed instruction
system.cpu2.op_class::SimdShaSigma3                 0      0.00%     50.00% # Class of executed instruction
system.cpu2.op_class::SimdPredAlu                   0      0.00%     50.00% # Class of executed instruction
system.cpu2.op_class::MemRead                       6     30.00%     80.00% # Class of executed instruction
system.cpu2.op_class::MemWrite                      4     20.00%    100.00% # Class of executed instruction
system.cpu2.op_class::FloatMemRead                  0      0.00%    100.00% # Class of executed instruction
system.cpu2.op_class::FloatMemWrite                 0      0.00%    100.00% # Class of executed instruction
system.cpu2.op_class::IprAccess                     0      0.00%    100.00% # Class of executed instruction
system.cpu2.op_class::InstPrefetch                  0      0.00%    100.00% # Class of executed instruction
system.cpu2.op_class::total                        20                       # Class of executed instruction
system.cpu2.workload.numSyscalls                    0                       # Number of system calls
system.cpu3.Branches                                1                       # Number of branches fetched
system.cpu3.committedInsts                         15                       # Number of instructions committed
system.cpu3.committedOps                           20                       # Number of ops (including micro ops) committed
system.cpu3.idle_fraction                           0                       # Percentage of idle cycles
system.cpu3.l2bus.snoop_filter.hit_multi_requests            2                       # Number of requests hitting in the snoop filter with multiple (>1) holders of the requested data.
system.cpu3.l2bus.snoop_filter.hit_multi_snoops            0                       # Number of snoops hitting in the snoop filter with multiple (>1) holders of the requested data.
system.cpu3.l2bus.snoop_filter.hit_single_requests         6272                       # Number of requests hitting in the snoop filter with a single holder of the requested data.
system.cpu3.l2bus.snoop_filter.hit_single_snoops            0                       # Number of snoops hitting in the snoop filter with a single holder of the requested data.
system.cpu3.l2bus.snoop_filter.tot_requests        13355                       # Total number of requests made to the snoop filter.
system.cpu3.l2bus.snoop_filter.tot_snoops            0                       # Total number of snoops made to the snoop filter.
system.cpu3.mmucache.mmubus.snoop_filter.hit_multi_requests            0                       # Number of requests hitting in the snoop filter with multiple (>1) holders of the requested data.
system.cpu3.mmucache.mmubus.snoop_filter.hit_multi_snoops            0                       # Number of snoops hitting in the snoop filter with multiple (>1) holders of the requested data.
system.cpu3.mmucache.mmubus.snoop_filter.hit_single_requests            0                       # Number of requests hitting in the snoop filter with a single holder of the requested data.
system.cpu3.mmucache.mmubus.snoop_filter.hit_single_snoops            0                       # Number of snoops hitting in the snoop filter with a single holder of the requested data.
system.cpu3.mmucache.mmubus.snoop_filter.tot_requests            0                       # Total number of requests made to the snoop filter.
system.cpu3.mmucache.mmubus.snoop_filter.tot_snoops            0                       # Total number of snoops made to the snoop filter.
system.cpu3.not_idle_fraction                       1                       # Percentage of non-idle cycles
system.cpu3.numCycles                              30                       # number of cpu cycles simulated
system.cpu3.numWorkItemsCompleted                   0                       # number of work items this cpu completed
system.cpu3.numWorkItemsStarted                     0                       # number of work items this cpu started
system.cpu3.num_busy_cycles                        30                       # Number of busy cycles
system.cpu3.num_cc_register_reads                   5                       # number of times the CC registers were read
system.cpu3.num_cc_register_writes                  2                       # number of times the CC registers were written
system.cpu3.num_conditional_control_insts            1                       # number of instructions that are conditional controls
system.cpu3.num_fp_alu_accesses                     0                       # Number of float alu accesses
system.cpu3.num_fp_insts                            0                       # number of float instructions
system.cpu3.num_fp_register_reads                   0                       # number of times the floating registers were read
system.cpu3.num_fp_register_writes                  0                       # number of times the floating registers were written
system.cpu3.num_func_calls                          0                       # number of times a function call or return occured
system.cpu3.num_idle_cycles                         0                       # Number of idle cycles
system.cpu3.num_int_alu_accesses                   20                       # Number of integer alu accesses
system.cpu3.num_int_insts                          20                       # number of integer instructions
system.cpu3.num_int_register_reads                 49                       # number of times the integer registers were read
system.cpu3.num_int_register_writes                15                       # number of times the integer registers were written
system.cpu3.num_load_insts                          6                       # Number of load instructions
system.cpu3.num_mem_refs                           10                       # number of memory refs
system.cpu3.num_store_insts                         4                       # Number of store instructions
system.cpu3.num_vec_alu_accesses                    0                       # Number of vector alu accesses
system.cpu3.num_vec_insts                           0                       # number of vector instructions
system.cpu3.num_vec_register_reads                  0                       # number of times the vector registers were read
system.cpu3.num_vec_register_writes                 0                       # number of times the vector registers were written
system.cpu3.op_class::No_OpClass                    0      0.00%      0.00% # Class of executed instruction
system.cpu3.op_class::IntAlu                       10     50.00%     50.00% # Class of executed instruction
system.cpu3.op_class::IntMult                       0      0.00%     50.00% # Class of executed instruction
system.cpu3.op_class::IntDiv                        0      0.00%     50.00% # Class of executed instruction
system.cpu3.op_class::FloatAdd                      0      0.00%     50.00% # Class of executed instruction
system.cpu3.op_class::FloatCmp                      0      0.00%     50.00% # Class of executed instruction
system.cpu3.op_class::FloatCvt                      0      0.00%     50.00% # Class of executed instruction
system.cpu3.op_class::FloatMult                     0      0.00%     50.00% # Class of executed instruction
system.cpu3.op_class::FloatMultAcc                  0      0.00%     50.00% # Class of executed instruction
system.cpu3.op_class::FloatDiv                      0      0.00%     50.00% # Class of executed instruction
system.cpu3.op_class::FloatMisc                     0      0.00%     50.00% # Class of executed instruction
system.cpu3.op_class::FloatSqrt                     0      0.00%     50.00% # Class of executed instruction
system.cpu3.op_class::SimdAdd                       0      0.00%     50.00% # Class of executed instruction
system.cpu3.op_class::SimdAddAcc                    0      0.00%     50.00% # Class of executed instruction
system.cpu3.op_class::SimdAlu                       0      0.00%     50.00% # Class of executed instruction
system.cpu3.op_class::SimdCmp                       0      0.00%     50.00% # Class of executed instruction
system.cpu3.op_class::SimdCvt                       0      0.00%     50.00% # Class of executed instruction
system.cpu3.op_class::SimdMisc                      0      0.00%     50.00% # Class of executed instruction
system.cpu3.op_class::SimdMult                      0      0.00%     50.00% # Class of executed instruction
system.cpu3.op_class::SimdMultAcc                   0      0.00%     50.00% # Class of executed instruction
system.cpu3.op_class::SimdShift                     0      0.00%     50.00% # Class of executed instruction
system.cpu3.op_class::SimdShiftAcc                  0      0.00%     50.00% # Class of executed instruction
system.cpu3.op_class::SimdDiv                       0      0.00%     50.00% # Class of executed instruction
system.cpu3.op_class::SimdSqrt                      0      0.00%     50.00% # Class of executed instruction
system.cpu3.op_class::SimdFloatAdd                  0      0.00%     50.00% # Class of executed instruction
system.cpu3.op_class::SimdFloatAlu                  0      0.00%     50.00% # Class of executed instruction
system.cpu3.op_class::SimdFloatCmp                  0      0.00%     50.00% # Class of executed instruction
system.cpu3.op_class::SimdFloatCvt                  0      0.00%     50.00% # Class of executed instruction
system.cpu3.op_class::SimdFloatDiv                  0      0.00%     50.00% # Class of executed instruction
system.cpu3.op_class::SimdFloatMisc                 0      0.00%     50.00% # Class of executed instruction
system.cpu3.op_class::SimdFloatMult                 0      0.00%     50.00% # Class of executed instruction
system.cpu3.op_class::SimdFloatMultAcc              0      0.00%     50.00% # Class of executed instruction
system.cpu3.op_class::SimdFloatSqrt                 0      0.00%     50.00% # Class of executed instruction
system.cpu3.op_class::SimdReduceAdd                 0      0.00%     50.00% # Class of executed instruction
system.cpu3.op_class::SimdReduceAlu                 0      0.00%     50.00% # Class of executed instruction
system.cpu3.op_class::SimdReduceCmp                 0      0.00%     50.00% # Class of executed instruction
system.cpu3.op_class::SimdFloatReduceAdd            0      0.00%     50.00% # Class of executed instruction
system.cpu3.op_class::SimdFloatReduceCmp            0      0.00%     50.00% # Class of executed instruction
system.cpu3.op_class::SimdAes                       0      0.00%     50.00% # Class of executed instruction
system.cpu3.op_class::SimdAesMix                    0      0.00%     50.00% # Class of executed instruction
system.cpu3.op_class::SimdSha1Hash                  0      0.00%     50.00% # Class of executed instruction
system.cpu3.op_class::SimdSha1Hash2                 0      0.00%     50.00% # Class of executed instruction
system.cpu3.op_class::SimdSha256Hash                0      0.00%     50.00% # Class of executed instruction
system.cpu3.op_class::SimdSha256Hash2               0      0.00%     50.00% # Class of executed instruction
system.cpu3.op_class::SimdShaSigma2                 0      0.00%     50.00% # Class of executed instruction
system.cpu3.op_class::SimdShaSigma3                 0      0.00%     50.00% # Class of executed instruction
system.cpu3.op_class::SimdPredAlu                   0      0.00%     50.00% # Class of executed instruction
system.cpu3.op_class::MemRead                       6     30.00%     80.00% # Class of executed instruction
system.cpu3.op_class::MemWrite                      4     20.00%    100.00% # Class of executed instruction
system.cpu3.op_class::FloatMemRead                  0      0.00%    100.00% # Class of executed instruction
system.cpu3.op_class::FloatMemWrite                 0      0.00%    100.00% # Class of executed instruction
system.cpu3.op_class::IprAccess                     0      0.00%    100.00% # Class of executed instruction
system.cpu3.op_class::InstPrefetch                  0      0.00%    100.00% # Class of executed instruction
system.cpu3.op_class::total                        20                       # Class of executed instruction
system.cpu3.workload.numSyscalls                    0                       # Number of system calls
system.l3bus.snoop_filter.hit_multi_requests            0                       # Number of requests hitting in the snoop filter with multiple (>1) holders of the requested data.
system.l3bus.snoop_filter.hit_multi_snoops            0                       # Number of snoops hitting in the snoop filter with multiple (>1) holders of the requested data.
system.l3bus.snoop_filter.hit_single_requests            0                       # Number of requests hitting in the snoop filter with a single holder of the requested data.
system.l3bus.snoop_filter.hit_single_snoops            0                       # Number of snoops hitting in the snoop filter with a single holder of the requested data.
system.l3bus.snoop_filter.tot_requests           6772                       # Total number of requests made to the snoop filter.
system.l3bus.snoop_filter.tot_snoops                0                       # Total number of snoops made to the snoop filter.
system.membus.snoop_filter.hit_multi_requests            0                       # Number of requests hitting in the snoop filter with multiple (>1) holders of the requested data.
system.membus.snoop_filter.hit_multi_snoops            0                       # Number of snoops hitting in the snoop filter with multiple (>1) holders of the requested data.
system.membus.snoop_filter.hit_single_requests            0                       # Number of requests hitting in the snoop filter with a single holder of the requested data.
system.membus.snoop_filter.hit_single_snoops            0                       # Number of snoops hitting in the snoop filter with a single holder of the requested data.
system.membus.snoop_filter.tot_requests          6772                       # Total number of requests made to the snoop filter.
system.membus.snoop_filter.tot_snoops               0                       # Total number of snoops made to the snoop filter.
system.switch_cpus0.cc_regfile_reads        236352093                       # number of cc regfile reads
system.switch_cpus0.cc_regfile_writes       244403200                       # number of cc regfile writes
system.switch_cpus0.committedInsts          250000003                       # Number of Instructions Simulated
system.switch_cpus0.committedOps            489297897                       # Number of Ops (including micro ops) Simulated
system.switch_cpus0.cpi                      0.570166                       # CPI: Cycles Per Instruction
system.switch_cpus0.cpi_total                0.570166                       # CPI: Total CPI of All Threads
system.switch_cpus0.fp_regfile_reads             6330                       # number of floating regfile reads
system.switch_cpus0.fp_regfile_writes            6395                       # number of floating regfile writes
system.switch_cpus0.idleCycles                 213259                       # Total number of cycles that the CPU has spent unscheduled due to idling
system.switch_cpus0.iew.branchMispredicts      3090256                       # Number of branch mispredicts detected at execute
system.switch_cpus0.iew.exec_branches        46285207                       # Number of branches executed
system.switch_cpus0.iew.exec_nop                    0                       # number of nop insts executed
system.switch_cpus0.iew.exec_rate            4.129014                       # Inst execution rate
system.switch_cpus0.iew.exec_refs           174194316                       # number of memory reference insts executed
system.switch_cpus0.iew.exec_stores          47231353                       # Number of stores executed
system.switch_cpus0.iew.exec_swp                    0                       # number of swp insts executed
system.switch_cpus0.iew.iewBlockCycles       18220831                       # Number of cycles IEW is blocking
system.switch_cpus0.iew.iewDispLoadInsts    138993682                       # Number of dispatched load instructions
system.switch_cpus0.iew.iewDispNonSpecInsts            0                       # Number of dispatched non-speculative instructions
system.switch_cpus0.iew.iewDispSquashedInsts        13298                       # Number of squashed instructions skipped by dispatch
system.switch_cpus0.iew.iewDispStoreInsts     55588859                       # Number of dispatched store instructions
system.switch_cpus0.iew.iewDispatchedInsts    644099937                       # Number of instructions dispatched to IQ
system.switch_cpus0.iew.iewExecLoadInsts    126962963                       # Number of load instructions executed
system.switch_cpus0.iew.iewExecSquashedInsts      8553030                       # Number of squashed instructions skipped in execute
system.switch_cpus0.iew.iewExecutedInsts    588555756                       # Number of executed instructions
system.switch_cpus0.iew.iewIQFullEvents            24                       # Number of times the IQ has become full, causing a stall
system.switch_cpus0.iew.iewIdleCycles               0                       # Number of cycles IEW is idle
system.switch_cpus0.iew.iewLSQFullEvents         3006                       # Number of times the LSQ has become full, causing a stall
system.switch_cpus0.iew.iewSquashCycles       2516774                       # Number of cycles IEW is squashing
system.switch_cpus0.iew.iewUnblockCycles         3039                       # Number of cycles IEW is unblocking
system.switch_cpus0.iew.memOrderViolationEvents        41505                       # Number of memory order violations
system.switch_cpus0.iew.predictedNotTakenIncorrect      1522014                       # Number of branches that were predicted not taken incorrectly
system.switch_cpus0.iew.predictedTakenIncorrect      1568242                       # Number of branches that were predicted taken incorrectly
system.switch_cpus0.iew.wb_consumers        658618769                       # num instructions consuming a value
system.switch_cpus0.iew.wb_count            584483514                       # cumulative count of insts written-back
system.switch_cpus0.iew.wb_fanout            0.668697                       # average fanout of values written-back
system.switch_cpus0.iew.wb_producers        440416378                       # num instructions producing a value
system.switch_cpus0.iew.wb_rate              4.100445                       # insts written-back per cycle
system.switch_cpus0.iew.wb_sent             587265083                       # cumulative count of insts sent to commit
system.switch_cpus0.int_regfile_reads       852606230                       # number of integer regfile reads
system.switch_cpus0.int_regfile_writes      494135893                       # number of integer regfile writes
system.switch_cpus0.ipc                      1.753876                       # IPC: Instructions Per Cycle
system.switch_cpus0.ipc_total                1.753876                       # IPC: Total IPC of All Threads
system.switch_cpus0.iq.FU_type_0::No_OpClass      1212393      0.20%      0.20% # Type of FU issued
system.switch_cpus0.iq.FU_type_0::IntAlu    413969251     69.33%     69.53% # Type of FU issued
system.switch_cpus0.iq.FU_type_0::IntMult      3578808      0.60%     70.13% # Type of FU issued
system.switch_cpus0.iq.FU_type_0::IntDiv        24111      0.00%     70.14% # Type of FU issued
system.switch_cpus0.iq.FU_type_0::FloatAdd            0      0.00%     70.14% # Type of FU issued
system.switch_cpus0.iq.FU_type_0::FloatCmp            0      0.00%     70.14% # Type of FU issued
system.switch_cpus0.iq.FU_type_0::FloatCvt            0      0.00%     70.14% # Type of FU issued
system.switch_cpus0.iq.FU_type_0::FloatMult            0      0.00%     70.14% # Type of FU issued
system.switch_cpus0.iq.FU_type_0::FloatMultAcc            0      0.00%     70.14% # Type of FU issued
system.switch_cpus0.iq.FU_type_0::FloatDiv            0      0.00%     70.14% # Type of FU issued
system.switch_cpus0.iq.FU_type_0::FloatMisc            0      0.00%     70.14% # Type of FU issued
system.switch_cpus0.iq.FU_type_0::FloatSqrt            0      0.00%     70.14% # Type of FU issued
system.switch_cpus0.iq.FU_type_0::SimdAdd            0      0.00%     70.14% # Type of FU issued
system.switch_cpus0.iq.FU_type_0::SimdAddAcc            0      0.00%     70.14% # Type of FU issued
system.switch_cpus0.iq.FU_type_0::SimdAlu            0      0.00%     70.14% # Type of FU issued
system.switch_cpus0.iq.FU_type_0::SimdCmp            0      0.00%     70.14% # Type of FU issued
system.switch_cpus0.iq.FU_type_0::SimdCvt            0      0.00%     70.14% # Type of FU issued
system.switch_cpus0.iq.FU_type_0::SimdMisc            0      0.00%     70.14% # Type of FU issued
system.switch_cpus0.iq.FU_type_0::SimdMult            0      0.00%     70.14% # Type of FU issued
system.switch_cpus0.iq.FU_type_0::SimdMultAcc            0      0.00%     70.14% # Type of FU issued
system.switch_cpus0.iq.FU_type_0::SimdShift            0      0.00%     70.14% # Type of FU issued
system.switch_cpus0.iq.FU_type_0::SimdShiftAcc            0      0.00%     70.14% # Type of FU issued
system.switch_cpus0.iq.FU_type_0::SimdDiv            0      0.00%     70.14% # Type of FU issued
system.switch_cpus0.iq.FU_type_0::SimdSqrt            0      0.00%     70.14% # Type of FU issued
system.switch_cpus0.iq.FU_type_0::SimdFloatAdd            0      0.00%     70.14% # Type of FU issued
system.switch_cpus0.iq.FU_type_0::SimdFloatAlu            0      0.00%     70.14% # Type of FU issued
system.switch_cpus0.iq.FU_type_0::SimdFloatCmp            0      0.00%     70.14% # Type of FU issued
system.switch_cpus0.iq.FU_type_0::SimdFloatCvt            0      0.00%     70.14% # Type of FU issued
system.switch_cpus0.iq.FU_type_0::SimdFloatDiv            0      0.00%     70.14% # Type of FU issued
system.switch_cpus0.iq.FU_type_0::SimdFloatMisc            0      0.00%     70.14% # Type of FU issued
system.switch_cpus0.iq.FU_type_0::SimdFloatMult            0      0.00%     70.14% # Type of FU issued
system.switch_cpus0.iq.FU_type_0::SimdFloatMultAcc            0      0.00%     70.14% # Type of FU issued
system.switch_cpus0.iq.FU_type_0::SimdFloatSqrt            0      0.00%     70.14% # Type of FU issued
system.switch_cpus0.iq.FU_type_0::SimdReduceAdd            0      0.00%     70.14% # Type of FU issued
system.switch_cpus0.iq.FU_type_0::SimdReduceAlu            0      0.00%     70.14% # Type of FU issued
system.switch_cpus0.iq.FU_type_0::SimdReduceCmp            0      0.00%     70.14% # Type of FU issued
system.switch_cpus0.iq.FU_type_0::SimdFloatReduceAdd            0      0.00%     70.14% # Type of FU issued
system.switch_cpus0.iq.FU_type_0::SimdFloatReduceCmp            0      0.00%     70.14% # Type of FU issued
system.switch_cpus0.iq.FU_type_0::SimdAes            0      0.00%     70.14% # Type of FU issued
system.switch_cpus0.iq.FU_type_0::SimdAesMix            0      0.00%     70.14% # Type of FU issued
system.switch_cpus0.iq.FU_type_0::SimdSha1Hash            0      0.00%     70.14% # Type of FU issued
system.switch_cpus0.iq.FU_type_0::SimdSha1Hash2            0      0.00%     70.14% # Type of FU issued
system.switch_cpus0.iq.FU_type_0::SimdSha256Hash            0      0.00%     70.14% # Type of FU issued
system.switch_cpus0.iq.FU_type_0::SimdSha256Hash2            0      0.00%     70.14% # Type of FU issued
system.switch_cpus0.iq.FU_type_0::SimdShaSigma2            0      0.00%     70.14% # Type of FU issued
system.switch_cpus0.iq.FU_type_0::SimdShaSigma3            0      0.00%     70.14% # Type of FU issued
system.switch_cpus0.iq.FU_type_0::SimdPredAlu            0      0.00%     70.14% # Type of FU issued
system.switch_cpus0.iq.FU_type_0::MemRead    130055708     21.78%     91.92% # Type of FU issued
system.switch_cpus0.iq.FU_type_0::MemWrite     48255780      8.08%    100.00% # Type of FU issued
system.switch_cpus0.iq.FU_type_0::FloatMemRead         6402      0.00%    100.00% # Type of FU issued
system.switch_cpus0.iq.FU_type_0::FloatMemWrite         6340      0.00%    100.00% # Type of FU issued
system.switch_cpus0.iq.FU_type_0::IprAccess            0      0.00%    100.00% # Type of FU issued
system.switch_cpus0.iq.FU_type_0::InstPrefetch            0      0.00%    100.00% # Type of FU issued
system.switch_cpus0.iq.FU_type_0::total     597108793                       # Type of FU issued
system.switch_cpus0.iq.fp_alu_accesses          18302                       # Number of floating point alu accesses
system.switch_cpus0.iq.fp_inst_queue_reads        31049                       # Number of floating instruction queue reads
system.switch_cpus0.iq.fp_inst_queue_wakeup_accesses        12646                       # Number of floating instruction queue wakeup accesses
system.switch_cpus0.iq.fp_inst_queue_writes        13390                       # Number of floating instruction queue writes
system.switch_cpus0.iq.fu_busy_cnt           18179261                       # FU busy when requested
system.switch_cpus0.iq.fu_busy_rate          0.030445                       # FU busy rate (busy events/executed inst)
system.switch_cpus0.iq.fu_full::No_OpClass            0      0.00%      0.00% # attempts to use FU when none available
system.switch_cpus0.iq.fu_full::IntAlu       11325087     62.30%     62.30% # attempts to use FU when none available
system.switch_cpus0.iq.fu_full::IntMult             0      0.00%     62.30% # attempts to use FU when none available
system.switch_cpus0.iq.fu_full::IntDiv              0      0.00%     62.30% # attempts to use FU when none available
system.switch_cpus0.iq.fu_full::FloatAdd            0      0.00%     62.30% # attempts to use FU when none available
system.switch_cpus0.iq.fu_full::FloatCmp            0      0.00%     62.30% # attempts to use FU when none available
system.switch_cpus0.iq.fu_full::FloatCvt            0      0.00%     62.30% # attempts to use FU when none available
system.switch_cpus0.iq.fu_full::FloatMult            0      0.00%     62.30% # attempts to use FU when none available
system.switch_cpus0.iq.fu_full::FloatMultAcc            0      0.00%     62.30% # attempts to use FU when none available
system.switch_cpus0.iq.fu_full::FloatDiv            0      0.00%     62.30% # attempts to use FU when none available
system.switch_cpus0.iq.fu_full::FloatMisc            0      0.00%     62.30% # attempts to use FU when none available
system.switch_cpus0.iq.fu_full::FloatSqrt            0      0.00%     62.30% # attempts to use FU when none available
system.switch_cpus0.iq.fu_full::SimdAdd             0      0.00%     62.30% # attempts to use FU when none available
system.switch_cpus0.iq.fu_full::SimdAddAcc            0      0.00%     62.30% # attempts to use FU when none available
system.switch_cpus0.iq.fu_full::SimdAlu             0      0.00%     62.30% # attempts to use FU when none available
system.switch_cpus0.iq.fu_full::SimdCmp             0      0.00%     62.30% # attempts to use FU when none available
system.switch_cpus0.iq.fu_full::SimdCvt             0      0.00%     62.30% # attempts to use FU when none available
system.switch_cpus0.iq.fu_full::SimdMisc            0      0.00%     62.30% # attempts to use FU when none available
system.switch_cpus0.iq.fu_full::SimdMult            0      0.00%     62.30% # attempts to use FU when none available
system.switch_cpus0.iq.fu_full::SimdMultAcc            0      0.00%     62.30% # attempts to use FU when none available
system.switch_cpus0.iq.fu_full::SimdShift            0      0.00%     62.30% # attempts to use FU when none available
system.switch_cpus0.iq.fu_full::SimdShiftAcc            0      0.00%     62.30% # attempts to use FU when none available
system.switch_cpus0.iq.fu_full::SimdDiv             0      0.00%     62.30% # attempts to use FU when none available
system.switch_cpus0.iq.fu_full::SimdSqrt            0      0.00%     62.30% # attempts to use FU when none available
system.switch_cpus0.iq.fu_full::SimdFloatAdd            0      0.00%     62.30% # attempts to use FU when none available
system.switch_cpus0.iq.fu_full::SimdFloatAlu            0      0.00%     62.30% # attempts to use FU when none available
system.switch_cpus0.iq.fu_full::SimdFloatCmp            0      0.00%     62.30% # attempts to use FU when none available
system.switch_cpus0.iq.fu_full::SimdFloatCvt            0      0.00%     62.30% # attempts to use FU when none available
system.switch_cpus0.iq.fu_full::SimdFloatDiv            0      0.00%     62.30% # attempts to use FU when none available
system.switch_cpus0.iq.fu_full::SimdFloatMisc            0      0.00%     62.30% # attempts to use FU when none available
system.switch_cpus0.iq.fu_full::SimdFloatMult            0      0.00%     62.30% # attempts to use FU when none available
system.switch_cpus0.iq.fu_full::SimdFloatMultAcc            0      0.00%     62.30% # attempts to use FU when none available
system.switch_cpus0.iq.fu_full::SimdFloatSqrt            0      0.00%     62.30% # attempts to use FU when none available
system.switch_cpus0.iq.fu_full::SimdReduceAdd            0      0.00%     62.30% # attempts to use FU when none available
system.switch_cpus0.iq.fu_full::SimdReduceAlu            0      0.00%     62.30% # attempts to use FU when none available
system.switch_cpus0.iq.fu_full::SimdReduceCmp            0      0.00%     62.30% # attempts to use FU when none available
system.switch_cpus0.iq.fu_full::SimdFloatReduceAdd            0      0.00%     62.30% # attempts to use FU when none available
system.switch_cpus0.iq.fu_full::SimdFloatReduceCmp            0      0.00%     62.30% # attempts to use FU when none available
system.switch_cpus0.iq.fu_full::SimdAes             0      0.00%     62.30% # attempts to use FU when none available
system.switch_cpus0.iq.fu_full::SimdAesMix            0      0.00%     62.30% # attempts to use FU when none available
system.switch_cpus0.iq.fu_full::SimdSha1Hash            0      0.00%     62.30% # attempts to use FU when none available
system.switch_cpus0.iq.fu_full::SimdSha1Hash2            0      0.00%     62.30% # attempts to use FU when none available
system.switch_cpus0.iq.fu_full::SimdSha256Hash            0      0.00%     62.30% # attempts to use FU when none available
system.switch_cpus0.iq.fu_full::SimdSha256Hash2            0      0.00%     62.30% # attempts to use FU when none available
system.switch_cpus0.iq.fu_full::SimdShaSigma2            0      0.00%     62.30% # attempts to use FU when none available
system.switch_cpus0.iq.fu_full::SimdShaSigma3            0      0.00%     62.30% # attempts to use FU when none available
system.switch_cpus0.iq.fu_full::SimdPredAlu            0      0.00%     62.30% # attempts to use FU when none available
system.switch_cpus0.iq.fu_full::MemRead       5673528     31.21%     93.51% # attempts to use FU when none available
system.switch_cpus0.iq.fu_full::MemWrite      1175086      6.46%     99.97% # attempts to use FU when none available
system.switch_cpus0.iq.fu_full::FloatMemRead         2368      0.01%     99.98% # attempts to use FU when none available
system.switch_cpus0.iq.fu_full::FloatMemWrite         3192      0.02%    100.00% # attempts to use FU when none available
system.switch_cpus0.iq.fu_full::IprAccess            0      0.00%    100.00% # attempts to use FU when none available
system.switch_cpus0.iq.fu_full::InstPrefetch            0      0.00%    100.00% # attempts to use FU when none available
system.switch_cpus0.iq.int_alu_accesses     614057359                       # Number of integer alu accesses
system.switch_cpus0.iq.int_inst_queue_reads   1356441600                       # Number of integer instruction queue reads
system.switch_cpus0.iq.int_inst_queue_wakeup_accesses    584470868                       # Number of integer instruction queue wakeup accesses
system.switch_cpus0.iq.int_inst_queue_writes    798929016                       # Number of integer instruction queue writes
system.switch_cpus0.iq.iqInstsAdded         644099937                       # Number of instructions added to the IQ (excludes non-spec)
system.switch_cpus0.iq.iqInstsIssued        597108793                       # Number of instructions issued
system.switch_cpus0.iq.iqSquashedInstsExamined    154801970                       # Number of squashed instructions iterated over during squash; mainly for profiling
system.switch_cpus0.iq.iqSquashedInstsIssued      1747597                       # Number of squashed instructions issued
system.switch_cpus0.iq.iqSquashedOperandsExamined    202698867                       # Number of squashed operands that are examined and possibly removed from graph
system.switch_cpus0.iq.issued_per_cycle::samples    142328212                       # Number of insts issued each cycle
system.switch_cpus0.iq.issued_per_cycle::mean     4.195295                       # Number of insts issued each cycle
system.switch_cpus0.iq.issued_per_cycle::stdev     2.863892                       # Number of insts issued each cycle
system.switch_cpus0.iq.issued_per_cycle::underflows            0      0.00%      0.00% # Number of insts issued each cycle
system.switch_cpus0.iq.issued_per_cycle::0     32374134     22.75%     22.75% # Number of insts issued each cycle
system.switch_cpus0.iq.issued_per_cycle::1      4836935      3.40%     26.14% # Number of insts issued each cycle
system.switch_cpus0.iq.issued_per_cycle::2      5978170      4.20%     30.34% # Number of insts issued each cycle
system.switch_cpus0.iq.issued_per_cycle::3      9476318      6.66%     37.00% # Number of insts issued each cycle
system.switch_cpus0.iq.issued_per_cycle::4     13781502      9.68%     46.69% # Number of insts issued each cycle
system.switch_cpus0.iq.issued_per_cycle::5     15216615     10.69%     57.38% # Number of insts issued each cycle
system.switch_cpus0.iq.issued_per_cycle::6     22250888     15.63%     73.01% # Number of insts issued each cycle
system.switch_cpus0.iq.issued_per_cycle::7     20137047     14.15%     87.16% # Number of insts issued each cycle
system.switch_cpus0.iq.issued_per_cycle::8     18276603     12.84%    100.00% # Number of insts issued each cycle
system.switch_cpus0.iq.issued_per_cycle::overflows            0      0.00%    100.00% # Number of insts issued each cycle
system.switch_cpus0.iq.issued_per_cycle::min_value            0                       # Number of insts issued each cycle
system.switch_cpus0.iq.issued_per_cycle::max_value            8                       # Number of insts issued each cycle
system.switch_cpus0.iq.issued_per_cycle::total    142328212                       # Number of insts issued each cycle
system.switch_cpus0.iq.rate                  4.189018                       # Inst issue rate
system.switch_cpus0.iq.vec_alu_accesses             0                       # Number of vector alu accesses
system.switch_cpus0.iq.vec_inst_queue_reads            0                       # Number of vector instruction queue reads
system.switch_cpus0.iq.vec_inst_queue_wakeup_accesses            0                       # Number of vector instruction queue wakeup accesses
system.switch_cpus0.iq.vec_inst_queue_writes            0                       # Number of vector instruction queue writes
system.switch_cpus0.memDep0.conflictingLoads     28351109                       # Number of conflicting loads.
system.switch_cpus0.memDep0.conflictingStores     17077771                       # Number of conflicting stores.
system.switch_cpus0.memDep0.insertedLoads    138993682                       # Number of loads inserted to the mem dependence unit.
system.switch_cpus0.memDep0.insertedStores     55588859                       # Number of stores inserted to the mem dependence unit.
system.switch_cpus0.misc_regfile_reads      282417281                       # number of misc regfile reads
system.switch_cpus0.misc_regfile_writes             1                       # number of misc regfile writes
system.switch_cpus0.numCycles               142541471                       # number of cpu cycles simulated
system.switch_cpus0.numWorkItemsCompleted            0                       # number of work items this cpu completed
system.switch_cpus0.numWorkItemsStarted             0                       # number of work items this cpu started
system.switch_cpus0.timesIdled                   1172                       # Number of times that the entire CPU went into an idle state and unscheduled itself
system.switch_cpus1.cc_regfile_reads        236351336                       # number of cc regfile reads
system.switch_cpus1.cc_regfile_writes       244402101                       # number of cc regfile writes
system.switch_cpus1.committedInsts          249998709                       # Number of Instructions Simulated
system.switch_cpus1.committedOps            489295271                       # Number of Ops (including micro ops) Simulated
system.switch_cpus1.cpi                      0.570169                       # CPI: Cycles Per Instruction
system.switch_cpus1.cpi_total                0.570169                       # CPI: Total CPI of All Threads
system.switch_cpus1.fp_regfile_reads             6330                       # number of floating regfile reads
system.switch_cpus1.fp_regfile_writes            6395                       # number of floating regfile writes
system.switch_cpus1.idleCycles                 213974                       # Total number of cycles that the CPU has spent unscheduled due to idling
system.switch_cpus1.iew.branchMispredicts      3090187                       # Number of branch mispredicts detected at execute
system.switch_cpus1.iew.exec_branches        46285044                       # Number of branches executed
system.switch_cpus1.iew.exec_nop                    0                       # number of nop insts executed
system.switch_cpus1.iew.exec_rate            4.129004                       # Inst execution rate
system.switch_cpus1.iew.exec_refs           174193819                       # number of memory reference insts executed
system.switch_cpus1.iew.exec_stores          47231209                       # Number of stores executed
system.switch_cpus1.iew.exec_swp                    0                       # number of swp insts executed
system.switch_cpus1.iew.iewBlockCycles       18219902                       # Number of cycles IEW is blocking
system.switch_cpus1.iew.iewDispLoadInsts    138993570                       # Number of dispatched load instructions
system.switch_cpus1.iew.iewDispNonSpecInsts            0                       # Number of dispatched non-speculative instructions
system.switch_cpus1.iew.iewDispSquashedInsts        13288                       # Number of squashed instructions skipped by dispatch
system.switch_cpus1.iew.iewDispStoreInsts     55588839                       # Number of dispatched store instructions
system.switch_cpus1.iew.iewDispatchedInsts    644099353                       # Number of instructions dispatched to IQ
system.switch_cpus1.iew.iewExecLoadInsts    126962610                       # Number of load instructions executed
system.switch_cpus1.iew.iewExecSquashedInsts      8552942                       # Number of squashed instructions skipped in execute
system.switch_cpus1.iew.iewExecutedInsts    588554344                       # Number of executed instructions
system.switch_cpus1.iew.iewIQFullEvents            24                       # Number of times the IQ has become full, causing a stall
system.switch_cpus1.iew.iewIdleCycles               0                       # Number of cycles IEW is idle
system.switch_cpus1.iew.iewLSQFullEvents         3212                       # Number of times the LSQ has become full, causing a stall
system.switch_cpus1.iew.iewSquashCycles       2516763                       # Number of cycles IEW is squashing
system.switch_cpus1.iew.iewUnblockCycles         3245                       # Number of cycles IEW is unblocking
system.switch_cpus1.iew.memOrderViolationEvents        41497                       # Number of memory order violations
system.switch_cpus1.iew.predictedNotTakenIncorrect      1521971                       # Number of branches that were predicted not taken incorrectly
system.switch_cpus1.iew.predictedTakenIncorrect      1568216                       # Number of branches that were predicted taken incorrectly
system.switch_cpus1.iew.wb_consumers        658616637                       # num instructions consuming a value
system.switch_cpus1.iew.wb_count            584481991                       # cumulative count of insts written-back
system.switch_cpus1.iew.wb_fanout            0.668697                       # average fanout of values written-back
system.switch_cpus1.iew.wb_producers        440415234                       # num instructions producing a value
system.switch_cpus1.iew.wb_rate              4.100435                       # insts written-back per cycle
system.switch_cpus1.iew.wb_sent             587263654                       # cumulative count of insts sent to commit
system.switch_cpus1.int_regfile_reads       852603548                       # number of integer regfile reads
system.switch_cpus1.int_regfile_writes      494134806                       # number of integer regfile writes
system.switch_cpus1.ipc                      1.753866                       # IPC: Instructions Per Cycle
system.switch_cpus1.ipc_total                1.753866                       # IPC: Total IPC of All Threads
system.switch_cpus1.iq.FU_type_0::No_OpClass      1212350      0.20%      0.20% # Type of FU issued
system.switch_cpus1.iq.FU_type_0::IntAlu    413968369     69.33%     69.53% # Type of FU issued
system.switch_cpus1.iq.FU_type_0::IntMult      3578800      0.60%     70.13% # Type of FU issued
system.switch_cpus1.iq.FU_type_0::IntDiv        24111      0.00%     70.14% # Type of FU issued
system.switch_cpus1.iq.FU_type_0::FloatAdd            0      0.00%     70.14% # Type of FU issued
system.switch_cpus1.iq.FU_type_0::FloatCmp            0      0.00%     70.14% # Type of FU issued
system.switch_cpus1.iq.FU_type_0::FloatCvt            0      0.00%     70.14% # Type of FU issued
system.switch_cpus1.iq.FU_type_0::FloatMult            0      0.00%     70.14% # Type of FU issued
system.switch_cpus1.iq.FU_type_0::FloatMultAcc            0      0.00%     70.14% # Type of FU issued
system.switch_cpus1.iq.FU_type_0::FloatDiv            0      0.00%     70.14% # Type of FU issued
system.switch_cpus1.iq.FU_type_0::FloatMisc            0      0.00%     70.14% # Type of FU issued
system.switch_cpus1.iq.FU_type_0::FloatSqrt            0      0.00%     70.14% # Type of FU issued
system.switch_cpus1.iq.FU_type_0::SimdAdd            0      0.00%     70.14% # Type of FU issued
system.switch_cpus1.iq.FU_type_0::SimdAddAcc            0      0.00%     70.14% # Type of FU issued
system.switch_cpus1.iq.FU_type_0::SimdAlu            0      0.00%     70.14% # Type of FU issued
system.switch_cpus1.iq.FU_type_0::SimdCmp            0      0.00%     70.14% # Type of FU issued
system.switch_cpus1.iq.FU_type_0::SimdCvt            0      0.00%     70.14% # Type of FU issued
system.switch_cpus1.iq.FU_type_0::SimdMisc            0      0.00%     70.14% # Type of FU issued
system.switch_cpus1.iq.FU_type_0::SimdMult            0      0.00%     70.14% # Type of FU issued
system.switch_cpus1.iq.FU_type_0::SimdMultAcc            0      0.00%     70.14% # Type of FU issued
system.switch_cpus1.iq.FU_type_0::SimdShift            0      0.00%     70.14% # Type of FU issued
system.switch_cpus1.iq.FU_type_0::SimdShiftAcc            0      0.00%     70.14% # Type of FU issued
system.switch_cpus1.iq.FU_type_0::SimdDiv            0      0.00%     70.14% # Type of FU issued
system.switch_cpus1.iq.FU_type_0::SimdSqrt            0      0.00%     70.14% # Type of FU issued
system.switch_cpus1.iq.FU_type_0::SimdFloatAdd            0      0.00%     70.14% # Type of FU issued
system.switch_cpus1.iq.FU_type_0::SimdFloatAlu            0      0.00%     70.14% # Type of FU issued
system.switch_cpus1.iq.FU_type_0::SimdFloatCmp            0      0.00%     70.14% # Type of FU issued
system.switch_cpus1.iq.FU_type_0::SimdFloatCvt            0      0.00%     70.14% # Type of FU issued
system.switch_cpus1.iq.FU_type_0::SimdFloatDiv            0      0.00%     70.14% # Type of FU issued
system.switch_cpus1.iq.FU_type_0::SimdFloatMisc            0      0.00%     70.14% # Type of FU issued
system.switch_cpus1.iq.FU_type_0::SimdFloatMult            0      0.00%     70.14% # Type of FU issued
system.switch_cpus1.iq.FU_type_0::SimdFloatMultAcc            0      0.00%     70.14% # Type of FU issued
system.switch_cpus1.iq.FU_type_0::SimdFloatSqrt            0      0.00%     70.14% # Type of FU issued
system.switch_cpus1.iq.FU_type_0::SimdReduceAdd            0      0.00%     70.14% # Type of FU issued
system.switch_cpus1.iq.FU_type_0::SimdReduceAlu            0      0.00%     70.14% # Type of FU issued
system.switch_cpus1.iq.FU_type_0::SimdReduceCmp            0      0.00%     70.14% # Type of FU issued
system.switch_cpus1.iq.FU_type_0::SimdFloatReduceAdd            0      0.00%     70.14% # Type of FU issued
system.switch_cpus1.iq.FU_type_0::SimdFloatReduceCmp            0      0.00%     70.14% # Type of FU issued
system.switch_cpus1.iq.FU_type_0::SimdAes            0      0.00%     70.14% # Type of FU issued
system.switch_cpus1.iq.FU_type_0::SimdAesMix            0      0.00%     70.14% # Type of FU issued
system.switch_cpus1.iq.FU_type_0::SimdSha1Hash            0      0.00%     70.14% # Type of FU issued
[...]
system.switch_cpus3.commit.numCommittedDist::stdev     3.228904                       # Number of insts commited each cycle
system.switch_cpus3.commit.numCommittedDist::underflows            0      0.00%      0.00% # Number of insts commited each cycle
system.switch_cpus3.commit.numCommittedDist::0     24250779     19.94%     19.94% # Number of insts commited each cycle
system.switch_cpus3.commit.numCommittedDist::1     18586459     15.29%     35.23% # Number of insts commited each cycle
system.switch_cpus3.commit.numCommittedDist::2      7137156      5.87%     41.10% # Number of insts commited each cycle
system.switch_cpus3.commit.numCommittedDist::3     12687224     10.43%     51.53% # Number of insts commited each cycle
system.switch_cpus3.commit.numCommittedDist::4      3827711      3.15%     54.68% # Number of insts commited each cycle
system.switch_cpus3.commit.numCommittedDist::5      7037472      5.79%     60.47% # Number of insts commited each cycle
system.switch_cpus3.commit.numCommittedDist::6      5889623      4.84%     65.31% # Number of insts commited each cycle
system.switch_cpus3.commit.numCommittedDist::7      4882145      4.02%     69.33% # Number of insts commited each cycle
system.switch_cpus3.commit.numCommittedDist::8     37295263     30.67%    100.00% # Number of insts commited each cycle
system.switch_cpus3.commit.numCommittedDist::overflows            0      0.00%    100.00% # Number of insts commited each cycle
system.switch_cpus3.commit.numCommittedDist::min_value            0                       # Number of insts commited each cycle
system.switch_cpus3.commit.numCommittedDist::max_value            8                       # Number of insts commited each cycle
system.switch_cpus3.commit.numCommittedDist::total    121593832                       # Number of insts commited each cycle
system.switch_cpus3.commit.instsCommitted    249998837                       # Number of instructions committed
system.switch_cpus3.commit.opsCommitted     489295504                       # Number of ops (including micro ops) committed
system.switch_cpus3.commit.memRefs          144800680                       # Number of memory references committed
system.switch_cpus3.commit.loads            101176212                       # Number of loads committed
system.switch_cpus3.commit.amos                     0                       # Number of atomic instructions committed
system.switch_cpus3.commit.membars                  0                       # Number of memory barriers committed
system.switch_cpus3.commit.branches          42318599                       # Number of branches committed
system.switch_cpus3.commit.vector                   0                       # Number of committed Vector instructions.
system.switch_cpus3.commit.floating             12358                       # Number of committed floating point instructions.
system.switch_cpus3.commit.integer          486635116                       # Number of committed integer instructions.
system.switch_cpus3.commit.functionCalls        81395                       # Number of function calls committed.
system.switch_cpus3.commit.committedInstType_0::No_OpClass      1018819      0.21%      0.21% # Class of committed instruction
system.switch_cpus3.commit.committedInstType_0::IntAlu    339907233     69.47%     69.68% # Class of committed instruction
system.switch_cpus3.commit.committedInstType_0::IntMult      3544692      0.72%     70.40% # Class of committed instruction
system.switch_cpus3.commit.committedInstType_0::IntDiv        24080      0.00%     70.41% # Class of committed instruction
system.switch_cpus3.commit.committedInstType_0::FloatAdd            0      0.00%     70.41% # Class of committed instruction
system.switch_cpus3.commit.committedInstType_0::FloatCmp            0      0.00%     70.41% # Class of committed instruction
system.switch_cpus3.commit.committedInstType_0::FloatCvt            0      0.00%     70.41% # Class of committed instruction
system.switch_cpus3.commit.committedInstType_0::FloatMult            0      0.00%     70.41% # Class of committed instruction
system.switch_cpus3.commit.committedInstType_0::FloatMultAcc            0      0.00%     70.41% # Class of committed instruction
system.switch_cpus3.commit.committedInstType_0::FloatDiv            0      0.00%     70.41% # Class of committed instruction
system.switch_cpus3.commit.committedInstType_0::FloatMisc            0      0.00%     70.41% # Class of committed instruction
system.switch_cpus3.commit.committedInstType_0::FloatSqrt            0      0.00%     70.41% # Class of committed instruction
system.switch_cpus3.commit.committedInstType_0::SimdAdd            0      0.00%     70.41% # Class of committed instruction
system.switch_cpus3.commit.committedInstType_0::SimdAddAcc            0      0.00%     70.41% # Class of committed instruction
system.switch_cpus3.commit.committedInstType_0::SimdAlu            0      0.00%     70.41% # Class of committed instruction
system.switch_cpus3.commit.committedInstType_0::SimdCmp            0      0.00%     70.41% # Class of committed instruction
system.switch_cpus3.commit.committedInstType_0::SimdCvt            0      0.00%     70.41% # Class of committed instruction
system.switch_cpus3.commit.committedInstType_0::SimdMisc            0      0.00%     70.41% # Class of committed instruction
system.switch_cpus3.commit.committedInstType_0::SimdMult            0      0.00%     70.41% # Class of committed instruction
system.switch_cpus3.commit.committedInstType_0::SimdMultAcc            0      0.00%     70.41% # Class of committed instruction
system.switch_cpus3.commit.committedInstType_0::SimdShift            0      0.00%     70.41% # Class of committed instruction
system.switch_cpus3.commit.committedInstType_0::SimdShiftAcc            0      0.00%     70.41% # Class of committed instruction
system.switch_cpus3.commit.committedInstType_0::SimdDiv            0      0.00%     70.41% # Class of committed instruction
system.switch_cpus3.commit.committedInstType_0::SimdSqrt            0      0.00%     70.41% # Class of committed instruction
system.switch_cpus3.commit.committedInstType_0::SimdFloatAdd            0      0.00%     70.41% # Class of committed instruction
system.switch_cpus3.commit.committedInstType_0::SimdFloatAlu            0      0.00%     70.41% # Class of committed instruction
system.switch_cpus3.commit.committedInstType_0::SimdFloatCmp            0      0.00%     70.41% # Class of committed instruction
system.switch_cpus3.commit.committedInstType_0::SimdFloatCvt            0      0.00%     70.41% # Class of committed instruction
system.switch_cpus3.commit.committedInstType_0::SimdFloatDiv            0      0.00%     70.41% # Class of committed instruction
system.switch_cpus3.commit.committedInstType_0::SimdFloatMisc            0      0.00%     70.41% # Class of committed instruction
system.switch_cpus3.commit.committedInstType_0::SimdFloatMult            0      0.00%     70.41% # Class of committed instruction
system.switch_cpus3.commit.committedInstType_0::SimdFloatMultAcc            0      0.00%     70.41% # Class of committed instruction
system.switch_cpus3.commit.committedInstType_0::SimdFloatSqrt            0      0.00%     70.41% # Class of committed instruction
system.switch_cpus3.commit.committedInstType_0::SimdReduceAdd            0      0.00%     70.41% # Class of committed instruction
system.switch_cpus3.commit.committedInstType_0::SimdReduceAlu            0      0.00%     70.41% # Class of committed instruction
system.switch_cpus3.commit.committedInstType_0::SimdReduceCmp            0      0.00%     70.41% # Class of committed instruction
system.switch_cpus3.commit.committedInstType_0::SimdFloatReduceAdd            0      0.00%     70.41% # Class of committed instruction
system.switch_cpus3.commit.committedInstType_0::SimdFloatReduceCmp            0      0.00%     70.41% # Class of committed instruction
system.switch_cpus3.commit.committedInstType_0::SimdAes            0      0.00%     70.41% # Class of committed instruction
system.switch_cpus3.commit.committedInstType_0::SimdAesMix            0      0.00%     70.41% # Class of committed instruction
system.switch_cpus3.commit.committedInstType_0::SimdSha1Hash            0      0.00%     70.41% # Class of committed instruction
system.switch_cpus3.commit.committedInstType_0::SimdSha1Hash2            0      0.00%     70.41% # Class of committed instruction
system.switch_cpus3.commit.committedInstType_0::SimdSha256Hash            0      0.00%     70.41% # Class of committed instruction
system.switch_cpus3.commit.committedInstType_0::SimdSha256Hash2            0      0.00%     70.41% # Class of committed instruction
system.switch_cpus3.commit.committedInstType_0::SimdShaSigma2            0      0.00%     70.41% # Class of committed instruction
system.switch_cpus3.commit.committedInstType_0::SimdShaSigma3            0      0.00%     70.41% # Class of committed instruction
system.switch_cpus3.commit.committedInstType_0::SimdPredAlu            0      0.00%     70.41% # Class of committed instruction
system.switch_cpus3.commit.committedInstType_0::MemRead    101170048     20.68%     91.08% # Class of committed instruction
system.switch_cpus3.commit.committedInstType_0::MemWrite     43618274      8.91%    100.00% # Class of committed instruction
system.switch_cpus3.commit.committedInstType_0::FloatMemRead         6164      0.00%    100.00% # Class of committed instruction
system.switch_cpus3.commit.committedInstType_0::FloatMemWrite         6194      0.00%    100.00% # Class of committed instruction
system.switch_cpus3.commit.committedInstType_0::IprAccess            0      0.00%    100.00% # Class of committed instruction
system.switch_cpus3.commit.committedInstType_0::InstPrefetch            0      0.00%    100.00% # Class of committed instruction
system.switch_cpus3.commit.committedInstType_0::total    489295504                       # Class of committed instruction
system.switch_cpus3.commit.commitEligibleSamples     37295263                       # number cycles where commit BW limit reached
system.switch_cpus3.decode.idleCycles        10670144                       # Number of cycles decode is idle
system.switch_cpus3.decode.blockedCycles     28587652                       # Number of cycles decode is blocked
system.switch_cpus3.decode.runCycles         90617413                       # Number of cycles decode is running
system.switch_cpus3.decode.unblockCycles      9935316                       # Number of cycles decode is unblocking
system.switch_cpus3.decode.squashCycles       2516774                       # Number of cycles decode is squashing
system.switch_cpus3.decode.branchResolved     33873924                       # Number of times decode resolved a  branch
system.switch_cpus3.decode.branchMispred        12214                       # Number of times decode detected a branch misprediction
system.switch_cpus3.decode.decodedInsts     686923166                       # Number of instructions handled by decode
system.switch_cpus3.decode.squashedInsts        53269                       # Number of squashed instructions handled by decode
system.switch_cpus3.dtb.rdAccesses          126961484                       # TLB accesses on read requests
system.switch_cpus3.dtb.wrAccesses           47231079                       # TLB accesses on write requests
system.switch_cpus3.dtb.rdMisses                   29                       # TLB misses on read requests
system.switch_cpus3.dtb.wrMisses                    4                       # TLB misses on write requests
system.switch_cpus3.dtb.walker.power_state.pwrStateResidencyTicks::UNDEFINED 19790311375170                       # Cumulative time (in ticks) in various power states
system.switch_cpus3.fetch.icacheStallCycles      2314033                       # Number of cycles fetch is stalled on an Icache miss
system.switch_cpus3.fetch.insts             369058679                       # Number of instructions fetch has processed
system.switch_cpus3.fetch.branches           62408300                       # Number of branches that fetch encountered
system.switch_cpus3.fetch.predictedBranches     35715389                       # Number of branches that fetch has predicted taken
system.switch_cpus3.fetch.cycles            137484565                       # Number of cycles fetch has run and was not squashing or blocked
system.switch_cpus3.fetch.squashCycles        5057408                       # Number of cycles fetch has spent squashing
system.switch_cpus3.fetch.cacheLines         53659543                       # Number of cache lines fetched
system.switch_cpus3.fetch.icacheSquashes         2856                       # Number of outstanding Icache misses that were squashed
system.switch_cpus3.fetch.nisnDist::samples    142327302                       # Number of instructions fetched each cycle (Total)
system.switch_cpus3.fetch.nisnDist::mean     5.073328                       # Number of instructions fetched each cycle (Total)
system.switch_cpus3.fetch.nisnDist::stdev     3.137811                       # Number of instructions fetched each cycle (Total)
system.switch_cpus3.fetch.nisnDist::underflows            0      0.00%      0.00% # Number of instructions fetched each cycle (Total)
system.switch_cpus3.fetch.nisnDist::0        21998623     15.46%     15.46% # Number of instructions fetched each cycle (Total)
system.switch_cpus3.fetch.nisnDist::1        10286729      7.23%     22.68% # Number of instructions fetched each cycle (Total)
system.switch_cpus3.fetch.nisnDist::2         4711658      3.31%     25.99% # Number of instructions fetched each cycle (Total)
system.switch_cpus3.fetch.nisnDist::3        12621866      8.87%     34.86% # Number of instructions fetched each cycle (Total)
system.switch_cpus3.fetch.nisnDist::4         6487505      4.56%     39.42% # Number of instructions fetched each cycle (Total)
system.switch_cpus3.fetch.nisnDist::5         8877794      6.24%     45.66% # Number of instructions fetched each cycle (Total)
system.switch_cpus3.fetch.nisnDist::6         7505373      5.27%     50.93% # Number of instructions fetched each cycle (Total)
system.switch_cpus3.fetch.nisnDist::7         9575812      6.73%     57.66% # Number of instructions fetched each cycle (Total)
system.switch_cpus3.fetch.nisnDist::8        60261942     42.34%    100.00% # Number of instructions fetched each cycle (Total)
system.switch_cpus3.fetch.nisnDist::overflows            0      0.00%    100.00% # Number of instructions fetched each cycle (Total)
system.switch_cpus3.fetch.nisnDist::min_value            0                       # Number of instructions fetched each cycle (Total)
system.switch_cpus3.fetch.nisnDist::max_value            8                       # Number of instructions fetched each cycle (Total)
system.switch_cpus3.fetch.nisnDist::total    142327302                       # Number of instructions fetched each cycle (Total)
system.switch_cpus3.fetch.branchRate         0.437826                       # Number of branch fetches per cycle
system.switch_cpus3.fetch.rate               2.589132                       # Number of inst fetches per cycle
system.switch_cpus3.itb.rdAccesses                  0                       # TLB accesses on read requests
system.switch_cpus3.itb.wrAccesses           53659543                       # TLB accesses on write requests
system.switch_cpus3.itb.rdMisses                    0                       # TLB misses on read requests
system.switch_cpus3.itb.wrMisses                   32                       # TLB misses on write requests
system.switch_cpus3.itb.walker.power_state.pwrStateResidencyTicks::UNDEFINED 19790311375170                       # Cumulative time (in ticks) in various power states
system.switch_cpus3.lsq0.forwLoads           14340617                       # Number of loads that had data forwarded from stores
system.switch_cpus3.lsq0.squashedLoads       37816674                       # Number of loads squashed
system.switch_cpus3.lsq0.ignoredResponses         4133                       # Number of memory responses ignored because the instruction is squashed
system.switch_cpus3.lsq0.memOrderViolation        41480                       # Number of memory ordering violations
system.switch_cpus3.lsq0.squashedStores      11963885                       # Number of stores squashed
system.switch_cpus3.lsq0.rescheduledLoads           14                       # Number of loads that were rescheduled
system.switch_cpus3.lsq0.blockedByCache             1                       # Number of times an access to memory failed due to the cache being blocked
system.switch_cpus3.power_state.pwrStateResidencyTicks::OFF  47466320166                       # Cumulative time (in ticks) in various power states
system.switch_cpus3.rename.squashCycles       2516774                       # Number of cycles rename is squashing
system.switch_cpus3.rename.idleCycles        15399246                       # Number of cycles rename is idle
system.switch_cpus3.rename.blockCycles       18201527                       # Number of cycles rename is blocking
system.switch_cpus3.rename.serializeStallCycles            0                       # count of cycles rename stalledfor serializing inst
system.switch_cpus3.rename.runCycles         95554070                       # Number of cycles rename is running
system.switch_cpus3.rename.unblockCycles     10655677                       # Number of cycles rename is unblocking
system.switch_cpus3.rename.renamedInsts     671105765                       # Number of instructions processed by rename
system.switch_cpus3.rename.ROBFullEvents        13917                       # Number of times rename has blocked due to ROB full
system.switch_cpus3.rename.IQFullEvents       1420757                       # Number of times rename has blocked due to IQ full
system.switch_cpus3.rename.LQFullEvents       7510789                       # Number of times rename has blocked due to LQ full
system.switch_cpus3.rename.SQFullEvents         34874                       # Number of times rename has blocked due to SQ full
system.switch_cpus3.rename.renamedOperands    847430849                       # Number of destination operands rename has renamed
system.switch_cpus3.rename.lookups         1630583829                       # Number of register rename lookups that rename has made
system.switch_cpus3.rename.intLookups      1001206071                       # Number of integer rename lookups
system.switch_cpus3.rename.fpLookups             6530                       # Number of floating rename lookups
system.switch_cpus3.rename.committedMaps    613587390                       # Number of HB maps that are committed
system.switch_cpus3.rename.undoneMaps       233843328                       # Number of HB maps that are undone due to squashing
system.switch_cpus3.rename.serializing              0                       # count of serializing insts renamed
system.switch_cpus3.rename.tempSerializing            0                       # count of temporary serializing insts renamed
system.switch_cpus3.rename.skidInsts         33639847                       # count of insts added to the skid buffer
system.switch_cpus3.rob.reads               728394774                       # The number of ROB reads
system.switch_cpus3.rob.writes             1308971162                       # The number of ROB writes
system.switch_cpus3.thread0.numInsts        249998837                       # Number of Instructions committed
system.switch_cpus3.thread0.numOps          489295504                       # Number of Ops committed
system.switch_cpus3.thread0.numMemRefs              0                       # Number of Memory References
system.voltage_domain.voltage                       1                       # Voltage in Volts

---------- End Simulation Statistics   ----------
