Command line:
./runscript_pride.sh leela AE.BASELINE.1C 1 2017
Global frequency set at 1000000000000 ticks per second
DRAM config: RowsPerBank: 65536, BanksPerRank: 32, RanksPerChannel: 1
warn: Sockets disabled, not accepting gdb connections
warn: CoherentXBar system.cpu.mmucache.mmubus has no snooping ports attached!
warn: Checkpoints for file descriptors currently do not work.
gem5 Simulator System.  http://gem5.org
gem5 is copyrighted software; use the --copyright option for details.

gem5 version 20.1.0.5
gem5 compiled Jul 12 2024 12:42:38
gem5 started Jul 31 2024 03:21:18
gem5 executing on a07dda8b130c, pid 225593
command line: /home/user/PrIDE/performance/gem5/build/X86/gem5.opt --outdir=/home/user/PrIDE/performance/gem5/stats/pride_multiprogram_16GBmem_250Mn.SPEC2017.C1/AE.BASELINE.1C/leela /home/user/PrIDE/performance/gem5/configs/example/se_rq_spec_config_multicore.py --redirects /lib64=/home/utils/gcc-6.2.0/lib64 --benchmark=leela --benchmark_stdout=/home/user/PrIDE/performance/gem5/stats/pride_multiprogram_16GBmem_250Mn.SPEC2017.C1/AE.BASELINE.1C/leela/leela.out --benchmark_stderr=/home/user/PrIDE/performance/gem5/stats/pride_multiprogram_16GBmem_250Mn.SPEC2017.C1/AE.BASELINE.1C/leela/leela.err --spec-version=2017 --num-cpus=1 --mem-size=16GB --mem-type=DDR5_2400_32x4 --mem-ranks=1 --mem-channels=1 --checkpoint-dir=/home/user/PrIDE/performance/gem5/cpts-DDR5/multiprogram_16GBmem_25Bn.SPEC2017.C1/leela-1-ref-x86 --checkpoint-restore=25000000000 --at-instruction --cpu-type DerivO3CPU --caches --l2cache --l1d_size=32kB --l1i_size=32kB --l2_size=256kB --l3_size=4MB --l1d_assoc=8 --l1i_assoc=8 --l2_assoc=16 --l3_assoc=16 --cpu-clock=3GHz --sys-clock=3GHz --maxinsts=250000000 --prog-interval=300Hz

info: Standard input is not a terminal, disabling listeners.
Benchmark- 0   leela
Selected benchmark
--> leela
CMD: ['/opt/spec2017/benchspec/CPU/541.leela_r/run/run_base_refrate_gem5_se-m64.0000/leela_r_base.gem5_se-m64', '/opt/spec2017/benchspec/CPU/541.leela_r/run/run_base_refrate_gem5_se-m64.0000/ref.sgf']
CWD: /opt/spec2017/benchspec/CPU/541.leela_r/run/run_base_refrate_gem5_se-m64.0000/
Process stdout file: /home/user/PrIDE/performance/gem5/stats/pride_multiprogram_16GBmem_250Mn.SPEC2017.C1/AE.BASELINE.1C/leela/leela.out_0
Process stderr file: /home/user/PrIDE/performance/gem5/stats/pride_multiprogram_16GBmem_250Mn.SPEC2017.C1/AE.BASELINE.1C/leela/leela.err_0
Workload-0: 
['/opt/spec2017/benchspec/CPU/541.leela_r/run/run_base_refrate_gem5_se-m64.0000/leela_r_base.gem5_se-m64', '/opt/spec2017/benchspec/CPU/541.leela_r/run/run_base_refrate_gem5_se-m64.0000/ref.sgf']
defense_enable:  False  detector:  MG  mitigation:  RRS  threshold:  800
mg_entries:  1700
rrs_tuples:  3400 rrs_swap_delay:  2740ns rit_acc_delay:  1.25ns
Switch at curTick count:10000
warn: membus.master is deprecated. `master` is now called `mem_side_ports`
warn: No dot file generated. Please install pydot to generate the dot file and pdf.
info: Entering event queue @ 18573644891205.  Starting simulation...
info: Entering event queue @ 18573644901205.  Starting simulation...
warn: PowerState: Already in the requested power state, request ignored
Switched CPUS @ tick 18573644901205
switching cpus
**** REAL SIMULATION ****
info: Entering event queue @ 18573644901528.  Starting simulation...
warn: MOVNTDQ: Ignoring non-temporal hint, modeling as cacheable!
18576978224538: Event_93: system.switch_cpus progress event, total committed:18712786, progress insts committed: 18712786, IPC: 01.86941
18580311557871: Event_93: system.switch_cpus progress event, total committed:38464200, progress insts committed: 19751414, IPC: 01.97317
18583644891204: Event_93: system.switch_cpus progress event, total committed:58281313, progress insts committed: 19817113, IPC: 01.97973
18586978224537: Event_93: system.switch_cpus progress event, total committed:78181897, progress insts committed: 19900584, IPC: 01.98807
18590311557870: Event_93: system.switch_cpus progress event, total committed:98203978, progress insts committed: 20022081, IPC: 02.00021
18593644891203: Event_93: system.switch_cpus progress event, total committed:115478350, progress insts committed: 17274372, IPC: 01.72571
18596978224536: Event_93: system.switch_cpus progress event, total committed:135521479, progress insts committed: 20043129, IPC: 02.00231
18600311557869: Event_93: system.switch_cpus progress event, total committed:155420901, progress insts committed: 19899422, IPC: 01.98795
18603644891202: Event_93: system.switch_cpus progress event, total committed:175444693, progress insts committed: 20023792, IPC: 02.00038
18606978224535: Event_93: system.switch_cpus progress event, total committed:195404034, progress insts committed: 19959341, IPC: 01.99394
18610311557868: Event_93: system.switch_cpus progress event, total committed:215296908, progress insts committed: 19892874, IPC: 001.9873
18613644891201: Event_93: system.switch_cpus progress event, total committed:235319172, progress insts committed: 20022264, IPC: 02.00022
18616978224534: Event_93: system.switch_cpus progress event, total committed:255425094, progress insts committed: 20105922, IPC: 02.00858
18620311557867: Event_93: system.switch_cpus progress event, total committed:275359224, progress insts committed: 19934130, IPC: 01.99142
18623644891200: Event_93: system.switch_cpus progress event, total committed:295423440, progress insts committed: 20064216, IPC: 02.00442
18626978224533: Event_93: system.switch_cpus progress event, total committed:315432395, progress insts committed: 20008955, IPC: 01.99889
18630311557866: Event_93: system.switch_cpus progress event, total committed:335412493, progress insts committed: 19980098, IPC: 01.99601
18633644891199: Event_93: system.switch_cpus progress event, total committed:355446429, progress insts committed: 20033936, IPC: 02.00139
18636978224532: Event_93: system.switch_cpus progress event, total committed:375471323, progress insts committed: 20024894, IPC: 02.00049
18640311557865: Event_93: system.switch_cpus progress event, total committed:395394983, progress insts committed: 19923660, IPC: 01.99037
18643644891198: Event_93: system.switch_cpus progress event, total committed:415329642, progress insts committed: 19934659, IPC: 01.99147
18646978224531: Event_93: system.switch_cpus progress event, total committed:435348444, progress insts committed: 20018802, IPC: 01.99988
18650311557864: Event_93: system.switch_cpus progress event, total committed:455372216, progress insts committed: 20023772, IPC: 02.00037
Exiting @ tick 18651056031576 because a thread reached the max instruction count
