
---------- Begin Simulation Statistics ----------
final_tick                               18651056097843                       # Number of ticks from beginning of simulation (restored from checkpoints and never reset)
host_inst_rate                                 106213                       # Simulator instruction rate (inst/s)
host_mem_usage                               16985484                       # Number of bytes of host memory used
host_op_rate                                   195368                       # Simulator op (including micro ops) rate (op/s)
host_seconds                                  2353.76                       # Real time elapsed on the host
host_tick_rate                               32888339                       # Simulator tick rate (ticks/s)
sim_freq                                 1000000000000                       # Frequency of simulated ticks
sim_insts                                   250000017                       # Number of instructions simulated
sim_ops                                     459848064                       # Number of ops (including micro ops) simulated
sim_seconds                                  0.077411                       # Number of seconds simulated
sim_ticks                                 77411227284                       # Number of ticks simulated
system.cpu.committedInsts                          17                       # Number of instructions committed
system.cpu.committedOps                            22                       # Number of ops (including micro ops) committed
system.cpu.idle_fraction                            0                       # Percentage of idle cycles
system.cpu.l2bus.snoop_filter.hit_multi_requests          287                       # Number of requests hitting in the snoop filter with multiple (>1) holders of the requested data.
system.cpu.l2bus.snoop_filter.hit_multi_snoops            0                       # Number of snoops hitting in the snoop filter with multiple (>1) holders of the requested data.
system.cpu.l2bus.snoop_filter.hit_single_requests       831730                       # Number of requests hitting in the snoop filter with a single holder of the requested data.
system.cpu.l2bus.snoop_filter.hit_single_snoops         1298                       # Number of snoops hitting in the snoop filter with a single holder of the requested data.
system.cpu.l2bus.snoop_filter.tot_requests      1663780                       # Total number of requests made to the snoop filter.
system.cpu.l2bus.snoop_filter.tot_snoops         1298                       # Total number of snoops made to the snoop filter.
system.cpu.mmucache.mmubus.snoop_filter.hit_multi_requests            0                       # Number of requests hitting in the snoop filter with multiple (>1) holders of the requested data.
system.cpu.mmucache.mmubus.snoop_filter.hit_multi_snoops            0                       # Number of snoops hitting in the snoop filter with multiple (>1) holders of the requested data.
system.cpu.mmucache.mmubus.snoop_filter.hit_single_requests            0                       # Number of requests hitting in the snoop filter with a single holder of the requested data.
system.cpu.mmucache.mmubus.snoop_filter.hit_single_snoops            0                       # Number of snoops hitting in the snoop filter with a single holder of the requested data.
system.cpu.mmucache.mmubus.snoop_filter.tot_requests            0                       # Total number of requests made to the snoop filter.
system.cpu.mmucache.mmubus.snoop_filter.tot_snoops            0                       # Total number of snoops made to the snoop filter.
system.cpu.not_idle_fraction                        1                       # Percentage of non-idle cycles
system.cpu.numCycles                               30                       # number of cpu cycles simulated
system.cpu.numWorkItemsCompleted                    0                       # number of work items this cpu completed
system.cpu.numWorkItemsStarted                      0                       # number of work items this cpu started
system.cpu.num_busy_cycles                         30                       # Number of busy cycles
system.cpu.num_cc_register_reads                   19                       # number of times the CC registers were read
system.cpu.num_cc_register_writes                  20                       # number of times the CC registers were written
system.cpu.num_conditional_control_insts            0                       # number of instructions that are conditional controls
system.cpu.num_fp_alu_accesses                      0                       # Number of float alu accesses
system.cpu.num_fp_insts                             0                       # number of float instructions
system.cpu.num_fp_register_reads                    0                       # number of times the floating registers were read
system.cpu.num_fp_register_writes                   0                       # number of times the floating registers were written
system.cpu.num_func_calls                           0                       # number of times a function call or return occured
system.cpu.num_idle_cycles                          0                       # Number of idle cycles
system.cpu.num_int_alu_accesses                    22                       # Number of integer alu accesses
system.cpu.num_int_insts                           22                       # number of integer instructions
system.cpu.num_int_register_reads                  51                       # number of times the integer registers were read
system.cpu.num_int_register_writes                 22                       # number of times the integer registers were written
system.cpu.num_load_insts                           6                       # Number of load instructions
system.cpu.num_mem_refs                             6                       # number of memory refs
system.cpu.num_store_insts                          0                       # Number of store instructions
system.cpu.num_vec_alu_accesses                     0                       # Number of vector alu accesses
system.cpu.num_vec_insts                            0                       # number of vector instructions
system.cpu.num_vec_register_reads                   0                       # number of times the vector registers were read
system.cpu.num_vec_register_writes                  0                       # number of times the vector registers were written
system.cpu.op_class::No_OpClass                     0      0.00%      0.00% # Class of executed instruction
system.cpu.op_class::IntAlu                        16     72.73%     72.73% # Class of executed instruction
system.cpu.op_class::IntMult                        0      0.00%     72.73% # Class of executed instruction
system.cpu.op_class::IntDiv                         0      0.00%     72.73% # Class of executed instruction
system.cpu.op_class::FloatAdd                       0      0.00%     72.73% # Class of executed instruction
system.cpu.op_class::FloatCmp                       0      0.00%     72.73% # Class of executed instruction
system.cpu.op_class::FloatCvt                       0      0.00%     72.73% # Class of executed instruction
system.cpu.op_class::FloatMult                      0      0.00%     72.73% # Class of executed instruction
system.cpu.op_class::FloatMultAcc                   0      0.00%     72.73% # Class of executed instruction
system.cpu.op_class::FloatDiv                       0      0.00%     72.73% # Class of executed instruction
system.cpu.op_class::FloatMisc                      0      0.00%     72.73% # Class of executed instruction
system.cpu.op_class::FloatSqrt                      0      0.00%     72.73% # Class of executed instruction
system.cpu.op_class::SimdAdd                        0      0.00%     72.73% # Class of executed instruction
system.cpu.op_class::SimdAddAcc                     0      0.00%     72.73% # Class of executed instruction
system.cpu.op_class::SimdAlu                        0      0.00%     72.73% # Class of executed instruction
system.cpu.op_class::SimdCmp                        0      0.00%     72.73% # Class of executed instruction
system.cpu.op_class::SimdCvt                        0      0.00%     72.73% # Class of executed instruction
system.cpu.op_class::SimdMisc                       0      0.00%     72.73% # Class of executed instruction
system.cpu.op_class::SimdMult                       0      0.00%     72.73% # Class of executed instruction
system.cpu.op_class::SimdMultAcc                    0      0.00%     72.73% # Class of executed instruction
system.cpu.op_class::SimdShift                      0      0.00%     72.73% # Class of executed instruction
system.cpu.op_class::SimdShiftAcc                   0      0.00%     72.73% # Class of executed instruction
system.cpu.op_class::SimdDiv                        0      0.00%     72.73% # Class of executed instruction
system.cpu.op_class::SimdSqrt                       0      0.00%     72.73% # Class of executed instruction
system.cpu.op_class::SimdFloatAdd                   0      0.00%     72.73% # Class of executed instruction
system.cpu.op_class::SimdFloatAlu                   0      0.00%     72.73% # Class of executed instruction
system.cpu.op_class::SimdFloatCmp                   0      0.00%     72.73% # Class of executed instruction
system.cpu.op_class::SimdFloatCvt                   0      0.00%     72.73% # Class of executed instruction
system.cpu.op_class::SimdFloatDiv                   0      0.00%     72.73% # Class of executed instruction
system.cpu.op_class::SimdFloatMisc                  0      0.00%     72.73% # Class of executed instruction
system.cpu.op_class::SimdFloatMult                  0      0.00%     72.73% # Class of executed instruction
system.cpu.op_class::SimdFloatMultAcc               0      0.00%     72.73% # Class of executed instruction
system.cpu.op_class::SimdFloatSqrt                  0      0.00%     72.73% # Class of executed instruction
system.cpu.op_class::SimdReduceAdd                  0      0.00%     72.73% # Class of executed instruction
system.cpu.op_class::SimdReduceAlu                  0      0.00%     72.73% # Class of executed instruction
system.cpu.op_class::SimdReduceCmp                  0      0.00%     72.73% # Class of executed instruction
system.cpu.op_class::SimdFloatReduceAdd             0      0.00%     72.73% # Class of executed instruction
system.cpu.op_class::SimdFloatReduceCmp             0      0.00%     72.73% # Class of executed instruction
system.cpu.op_class::SimdAes                        0      0.00%     72.73% # Class of executed instruction
system.cpu.op_class::SimdAesMix                     0      0.00%     72.73% # Class of executed instruction
system.cpu.op_class::SimdSha1Hash                   0      0.00%     72.73% # Class of executed instruction
system.cpu.op_class::SimdSha1Hash2                  0      0.00%     72.73% # Class of executed instruction
system.cpu.op_class::SimdSha256Hash                 0      0.00%     72.73% # Class of executed instruction
system.cpu.op_class::SimdSha256Hash2                0      0.00%     72.73% # Class of executed instruction
system.cpu.op_class::SimdShaSigma2                  0      0.00%     72.73% # Class of executed instruction
system.cpu.op_class::SimdShaSigma3                  0      0.00%     72.73% # Class of executed instruction
system.cpu.op_class::SimdPredAlu                    0      0.00%     72.73% # Class of executed instruction
system.cpu.op_class::MemRead                        6     27.27%    100.00% # Class of executed instruction
system.cpu.op_class::MemWrite                       0      0.00%    100.00% # Class of executed instruction
system.cpu.op_class::FloatMemRead                   0      0.00%    100.00% # Class of executed instruction
system.cpu.op_class::FloatMemWrite                  0      0.00%    100.00% # Class of executed instruction
system.cpu.op_class::IprAccess                      0      0.00%    100.00% # Class of executed instruction
system.cpu.op_class::InstPrefetch                   0      0.00%    100.00% # Class of executed instruction
system.cpu.op_class::total                         22                       # Class of executed instruction
system.cpu.workload.numSyscalls                     0                       # Number of system calls
system.l3bus.snoop_filter.hit_multi_requests            0                       # Number of requests hitting in the snoop filter with multiple (>1) holders of the requested data.
system.l3bus.snoop_filter.hit_multi_snoops            0                       # Number of snoops hitting in the snoop filter with multiple (>1) holders of the requested data.
system.l3bus.snoop_filter.hit_single_requests        23497                       # Number of requests hitting in the snoop filter with a single holder of the requested data.
system.l3bus.snoop_filter.hit_single_snoops            0                       # Number of snoops hitting in the snoop filter with a single holder of the requested data.
system.l3bus.snoop_filter.tot_requests          51415                       # Total number of requests made to the snoop filter.
system.l3bus.snoop_filter.tot_snoops                0                       # Total number of snoops made to the snoop filter.
system.membus.snoop_filter.hit_multi_requests            0                       # Number of requests hitting in the snoop filter with multiple (>1) holders of the requested data.
system.membus.snoop_filter.hit_multi_snoops            0                       # Number of snoops hitting in the snoop filter with multiple (>1) holders of the requested data.
system.membus.snoop_filter.hit_single_requests            1                       # Number of requests hitting in the snoop filter with a single holder of the requested data.
system.membus.snoop_filter.hit_single_snoops            0                       # Number of snoops hitting in the snoop filter with a single holder of the requested data.
system.membus.snoop_filter.tot_requests         15242                       # Total number of requests made to the snoop filter.
system.membus.snoop_filter.tot_snoops               0                       # Total number of snoops made to the snoop filter.
system.switch_cpus.cc_regfile_reads         318701579                       # number of cc regfile reads
system.switch_cpus.cc_regfile_writes        224841790                       # number of cc regfile writes
system.switch_cpus.committedInsts           250000000                       # Number of Instructions Simulated
system.switch_cpus.committedOps             459848042                       # Number of Ops (including micro ops) Simulated
system.switch_cpus.cpi                       0.929864                       # CPI: Cycles Per Instruction
system.switch_cpus.cpi_total                 0.929864                       # CPI: Total CPI of All Threads
system.switch_cpus.fp_regfile_reads           1976755                       # number of floating regfile reads
system.switch_cpus.fp_regfile_writes          1431248                       # number of floating regfile writes
system.switch_cpus.idleCycles                  147275                       # Total number of cycles that the CPU has spent unscheduled due to idling
system.switch_cpus.iew.branchMispredicts      5862576                       # Number of branch mispredicts detected at execute
system.switch_cpus.iew.exec_branches         60522020                       # Number of branches executed
system.switch_cpus.iew.exec_nop                     0                       # number of nop insts executed
system.switch_cpus.iew.exec_rate             2.804937                       # Inst execution rate
system.switch_cpus.iew.exec_refs            133128480                       # number of memory reference insts executed
system.switch_cpus.iew.exec_stores           33072732                       # Number of stores executed
system.switch_cpus.iew.exec_swp                     0                       # number of swp insts executed
system.switch_cpus.iew.iewBlockCycles        40255670                       # Number of cycles IEW is blocking
system.switch_cpus.iew.iewDispLoadInsts     124053326                       # Number of dispatched load instructions
system.switch_cpus.iew.iewDispNonSpecInsts          107                       # Number of dispatched non-speculative instructions
system.switch_cpus.iew.iewDispSquashedInsts       159520                       # Number of squashed instructions skipped by dispatch
system.switch_cpus.iew.iewDispStoreInsts     41237507                       # Number of dispatched store instructions
system.switch_cpus.iew.iewDispatchedInsts    794398341                       # Number of instructions dispatched to IQ
system.switch_cpus.iew.iewExecLoadInsts     100055748                       # Number of load instructions executed
system.switch_cpus.iew.iewExecSquashedInsts     11257742                       # Number of squashed instructions skipped in execute
system.switch_cpus.iew.iewExecutedInsts     652052886                       # Number of executed instructions
system.switch_cpus.iew.iewIQFullEvents          11577                       # Number of times the IQ has become full, causing a stall
system.switch_cpus.iew.iewIdleCycles                0                       # Number of cycles IEW is idle
system.switch_cpus.iew.iewLSQFullEvents        166417                       # Number of times the LSQ has become full, causing a stall
system.switch_cpus.iew.iewSquashCycles        5214671                       # Number of cycles IEW is squashing
system.switch_cpus.iew.iewUnblockCycles        176430                       # Number of cycles IEW is unblocking
system.switch_cpus.iew.memOrderViolationEvents        40761                       # Number of memory order violations
system.switch_cpus.iew.predictedNotTakenIncorrect      3220037                       # Number of branches that were predicted not taken incorrectly
system.switch_cpus.iew.predictedTakenIncorrect      2642539                       # Number of branches that were predicted taken incorrectly
system.switch_cpus.iew.wb_consumers         878470327                       # num instructions consuming a value
system.switch_cpus.iew.wb_count             647111727                       # cumulative count of insts written-back
system.switch_cpus.iew.wb_fanout             0.572768                       # average fanout of values written-back
system.switch_cpus.iew.wb_producers         503159477                       # num instructions producing a value
system.switch_cpus.iew.wb_rate               2.783682                       # insts written-back per cycle
system.switch_cpus.iew.wb_sent              650819302                       # cumulative count of insts sent to commit
system.switch_cpus.int_regfile_reads        996866873                       # number of integer regfile reads
system.switch_cpus.int_regfile_writes       571368685                       # number of integer regfile writes
system.switch_cpus.ipc                       1.075426                       # IPC: Instructions Per Cycle
system.switch_cpus.ipc_total                 1.075426                       # IPC: Total IPC of All Threads
system.switch_cpus.iq.FU_type_0::No_OpClass      3357157      0.51%      0.51% # Type of FU issued
system.switch_cpus.iq.FU_type_0::IntAlu     511980756     77.19%     77.69% # Type of FU issued
system.switch_cpus.iq.FU_type_0::IntMult      2777390      0.42%     78.11% # Type of FU issued
system.switch_cpus.iq.FU_type_0::IntDiv       6876827      1.04%     79.15% # Type of FU issued
system.switch_cpus.iq.FU_type_0::FloatAdd        48454      0.01%     79.15% # Type of FU issued
system.switch_cpus.iq.FU_type_0::FloatCmp            0      0.00%     79.15% # Type of FU issued
system.switch_cpus.iq.FU_type_0::FloatCvt          370      0.00%     79.15% # Type of FU issued
system.switch_cpus.iq.FU_type_0::FloatMult            0      0.00%     79.15% # Type of FU issued
system.switch_cpus.iq.FU_type_0::FloatMultAcc            0      0.00%     79.15% # Type of FU issued
system.switch_cpus.iq.FU_type_0::FloatDiv            0      0.00%     79.15% # Type of FU issued
system.switch_cpus.iq.FU_type_0::FloatMisc            0      0.00%     79.15% # Type of FU issued
system.switch_cpus.iq.FU_type_0::FloatSqrt            0      0.00%     79.15% # Type of FU issued
system.switch_cpus.iq.FU_type_0::SimdAdd            0      0.00%     79.15% # Type of FU issued
system.switch_cpus.iq.FU_type_0::SimdAddAcc            0      0.00%     79.15% # Type of FU issued
system.switch_cpus.iq.FU_type_0::SimdAlu        45050      0.01%     79.16% # Type of FU issued
system.switch_cpus.iq.FU_type_0::SimdCmp            0      0.00%     79.16% # Type of FU issued
system.switch_cpus.iq.FU_type_0::SimdCvt           24      0.00%     79.16% # Type of FU issued
system.switch_cpus.iq.FU_type_0::SimdMisc       118417      0.02%     79.18% # Type of FU issued
system.switch_cpus.iq.FU_type_0::SimdMult            0      0.00%     79.18% # Type of FU issued
system.switch_cpus.iq.FU_type_0::SimdMultAcc            0      0.00%     79.18% # Type of FU issued
system.switch_cpus.iq.FU_type_0::SimdShift            0      0.00%     79.18% # Type of FU issued
system.switch_cpus.iq.FU_type_0::SimdShiftAcc            0      0.00%     79.18% # Type of FU issued
system.switch_cpus.iq.FU_type_0::SimdDiv            0      0.00%     79.18% # Type of FU issued
system.switch_cpus.iq.FU_type_0::SimdSqrt            0      0.00%     79.18% # Type of FU issued
system.switch_cpus.iq.FU_type_0::SimdFloatAdd       113859      0.02%     79.20% # Type of FU issued
system.switch_cpus.iq.FU_type_0::SimdFloatAlu            0      0.00%     79.20% # Type of FU issued
system.switch_cpus.iq.FU_type_0::SimdFloatCmp            0      0.00%     79.20% # Type of FU issued
system.switch_cpus.iq.FU_type_0::SimdFloatCvt       248185      0.04%     79.23% # Type of FU issued
system.switch_cpus.iq.FU_type_0::SimdFloatDiv         3073      0.00%     79.23% # Type of FU issued
system.switch_cpus.iq.FU_type_0::SimdFloatMisc            0      0.00%     79.23% # Type of FU issued
system.switch_cpus.iq.FU_type_0::SimdFloatMult            0      0.00%     79.23% # Type of FU issued
system.switch_cpus.iq.FU_type_0::SimdFloatMultAcc            0      0.00%     79.23% # Type of FU issued
system.switch_cpus.iq.FU_type_0::SimdFloatSqrt            0      0.00%     79.23% # Type of FU issued
system.switch_cpus.iq.FU_type_0::SimdReduceAdd            0      0.00%     79.23% # Type of FU issued
system.switch_cpus.iq.FU_type_0::SimdReduceAlu            0      0.00%     79.23% # Type of FU issued
system.switch_cpus.iq.FU_type_0::SimdReduceCmp            0      0.00%     79.23% # Type of FU issued
system.switch_cpus.iq.FU_type_0::SimdFloatReduceAdd            0      0.00%     79.23% # Type of FU issued
system.switch_cpus.iq.FU_type_0::SimdFloatReduceCmp            0      0.00%     79.23% # Type of FU issued
system.switch_cpus.iq.FU_type_0::SimdAes            0      0.00%     79.23% # Type of FU issued
system.switch_cpus.iq.FU_type_0::SimdAesMix            0      0.00%     79.23% # Type of FU issued
system.switch_cpus.iq.FU_type_0::SimdSha1Hash            0      0.00%     79.23% # Type of FU issued
system.switch_cpus.iq.FU_type_0::SimdSha1Hash2            0      0.00%     79.23% # Type of FU issued
system.switch_cpus.iq.FU_type_0::SimdSha256Hash            0      0.00%     79.23% # Type of FU issued
system.switch_cpus.iq.FU_type_0::SimdSha256Hash2            0      0.00%     79.23% # Type of FU issued
system.switch_cpus.iq.FU_type_0::SimdShaSigma2            0      0.00%     79.23% # Type of FU issued
system.switch_cpus.iq.FU_type_0::SimdShaSigma3            0      0.00%     79.23% # Type of FU issued
system.switch_cpus.iq.FU_type_0::SimdPredAlu            0      0.00%     79.23% # Type of FU issued
system.switch_cpus.iq.FU_type_0::MemRead    102623430     15.47%     94.71% # Type of FU issued
system.switch_cpus.iq.FU_type_0::MemWrite     33195542      5.00%     99.71% # Type of FU issued
system.switch_cpus.iq.FU_type_0::FloatMemRead      1024589      0.15%     99.86% # Type of FU issued
system.switch_cpus.iq.FU_type_0::FloatMemWrite       897511      0.14%    100.00% # Type of FU issued
system.switch_cpus.iq.FU_type_0::IprAccess            0      0.00%    100.00% # Type of FU issued
system.switch_cpus.iq.FU_type_0::InstPrefetch            0      0.00%    100.00% # Type of FU issued
system.switch_cpus.iq.FU_type_0::total      663310634                       # Type of FU issued
system.switch_cpus.iq.fp_alu_accesses         2610371                       # Number of floating point alu accesses
system.switch_cpus.iq.fp_inst_queue_reads      5131876                       # Number of floating instruction queue reads
system.switch_cpus.iq.fp_inst_queue_wakeup_accesses      2426632                       # Number of floating instruction queue wakeup accesses
system.switch_cpus.iq.fp_inst_queue_writes      3909652                       # Number of floating instruction queue writes
system.switch_cpus.iq.fu_busy_cnt            11724356                       # FU busy when requested
system.switch_cpus.iq.fu_busy_rate           0.017676                       # FU busy rate (busy events/executed inst)
system.switch_cpus.iq.fu_full::No_OpClass            0      0.00%      0.00% # attempts to use FU when none available
system.switch_cpus.iq.fu_full::IntAlu         9760832     83.25%     83.25% # attempts to use FU when none available
system.switch_cpus.iq.fu_full::IntMult              0      0.00%     83.25% # attempts to use FU when none available
system.switch_cpus.iq.fu_full::IntDiv               0      0.00%     83.25% # attempts to use FU when none available
system.switch_cpus.iq.fu_full::FloatAdd             0      0.00%     83.25% # attempts to use FU when none available
system.switch_cpus.iq.fu_full::FloatCmp             0      0.00%     83.25% # attempts to use FU when none available
system.switch_cpus.iq.fu_full::FloatCvt             0      0.00%     83.25% # attempts to use FU when none available
system.switch_cpus.iq.fu_full::FloatMult            0      0.00%     83.25% # attempts to use FU when none available
system.switch_cpus.iq.fu_full::FloatMultAcc            0      0.00%     83.25% # attempts to use FU when none available
system.switch_cpus.iq.fu_full::FloatDiv             0      0.00%     83.25% # attempts to use FU when none available
system.switch_cpus.iq.fu_full::FloatMisc            0      0.00%     83.25% # attempts to use FU when none available
system.switch_cpus.iq.fu_full::FloatSqrt            0      0.00%     83.25% # attempts to use FU when none available
system.switch_cpus.iq.fu_full::SimdAdd              0      0.00%     83.25% # attempts to use FU when none available
system.switch_cpus.iq.fu_full::SimdAddAcc            0      0.00%     83.25% # attempts to use FU when none available
system.switch_cpus.iq.fu_full::SimdAlu              3      0.00%     83.25% # attempts to use FU when none available
system.switch_cpus.iq.fu_full::SimdCmp              0      0.00%     83.25% # attempts to use FU when none available
system.switch_cpus.iq.fu_full::SimdCvt              0      0.00%     83.25% # attempts to use FU when none available
system.switch_cpus.iq.fu_full::SimdMisc             0      0.00%     83.25% # attempts to use FU when none available
system.switch_cpus.iq.fu_full::SimdMult             0      0.00%     83.25% # attempts to use FU when none available
system.switch_cpus.iq.fu_full::SimdMultAcc            0      0.00%     83.25% # attempts to use FU when none available
system.switch_cpus.iq.fu_full::SimdShift            0      0.00%     83.25% # attempts to use FU when none available
system.switch_cpus.iq.fu_full::SimdShiftAcc            0      0.00%     83.25% # attempts to use FU when none available
system.switch_cpus.iq.fu_full::SimdDiv              0      0.00%     83.25% # attempts to use FU when none available
system.switch_cpus.iq.fu_full::SimdSqrt             0      0.00%     83.25% # attempts to use FU when none available
system.switch_cpus.iq.fu_full::SimdFloatAdd            0      0.00%     83.25% # attempts to use FU when none available
system.switch_cpus.iq.fu_full::SimdFloatAlu            0      0.00%     83.25% # attempts to use FU when none available
system.switch_cpus.iq.fu_full::SimdFloatCmp            0      0.00%     83.25% # attempts to use FU when none available
system.switch_cpus.iq.fu_full::SimdFloatCvt            0      0.00%     83.25% # attempts to use FU when none available
system.switch_cpus.iq.fu_full::SimdFloatDiv            0      0.00%     83.25% # attempts to use FU when none available
system.switch_cpus.iq.fu_full::SimdFloatMisc            0      0.00%     83.25% # attempts to use FU when none available
system.switch_cpus.iq.fu_full::SimdFloatMult            0      0.00%     83.25% # attempts to use FU when none available
system.switch_cpus.iq.fu_full::SimdFloatMultAcc            0      0.00%     83.25% # attempts to use FU when none available
system.switch_cpus.iq.fu_full::SimdFloatSqrt            0      0.00%     83.25% # attempts to use FU when none available
system.switch_cpus.iq.fu_full::SimdReduceAdd            0      0.00%     83.25% # attempts to use FU when none available
system.switch_cpus.iq.fu_full::SimdReduceAlu            0      0.00%     83.25% # attempts to use FU when none available
system.switch_cpus.iq.fu_full::SimdReduceCmp            0      0.00%     83.25% # attempts to use FU when none available
system.switch_cpus.iq.fu_full::SimdFloatReduceAdd            0      0.00%     83.25% # attempts to use FU when none available
system.switch_cpus.iq.fu_full::SimdFloatReduceCmp            0      0.00%     83.25% # attempts to use FU when none available
system.switch_cpus.iq.fu_full::SimdAes              0      0.00%     83.25% # attempts to use FU when none available
system.switch_cpus.iq.fu_full::SimdAesMix            0      0.00%     83.25% # attempts to use FU when none available
system.switch_cpus.iq.fu_full::SimdSha1Hash            0      0.00%     83.25% # attempts to use FU when none available
system.switch_cpus.iq.fu_full::SimdSha1Hash2            0      0.00%     83.25% # attempts to use FU when none available
system.switch_cpus.iq.fu_full::SimdSha256Hash            0      0.00%     83.25% # attempts to use FU when none available
system.switch_cpus.iq.fu_full::SimdSha256Hash2            0      0.00%     83.25% # attempts to use FU when none available
system.switch_cpus.iq.fu_full::SimdShaSigma2            0      0.00%     83.25% # attempts to use FU when none available
system.switch_cpus.iq.fu_full::SimdShaSigma3            0      0.00%     83.25% # attempts to use FU when none available
system.switch_cpus.iq.fu_full::SimdPredAlu            0      0.00%     83.25% # attempts to use FU when none available
system.switch_cpus.iq.fu_full::MemRead        1432859     12.22%     95.47% # attempts to use FU when none available
system.switch_cpus.iq.fu_full::MemWrite        437428      3.73%     99.20% # attempts to use FU when none available
system.switch_cpus.iq.fu_full::FloatMemRead        56220      0.48%     99.68% # attempts to use FU when none available
system.switch_cpus.iq.fu_full::FloatMemWrite        37014      0.32%    100.00% # attempts to use FU when none available
system.switch_cpus.iq.fu_full::IprAccess            0      0.00%    100.00% # attempts to use FU when none available
system.switch_cpus.iq.fu_full::InstPrefetch            0      0.00%    100.00% # attempts to use FU when none available
system.switch_cpus.iq.int_alu_accesses      669067462                       # Number of integer alu accesses
system.switch_cpus.iq.int_inst_queue_reads   1568843909                       # Number of integer instruction queue reads
system.switch_cpus.iq.int_inst_queue_wakeup_accesses    644685095                       # Number of integer instruction queue wakeup accesses
system.switch_cpus.iq.int_inst_queue_writes   1125077913                       # Number of integer instruction queue writes
system.switch_cpus.iq.iqInstsAdded          794361056                       # Number of instructions added to the IQ (excludes non-spec)
system.switch_cpus.iq.iqInstsIssued         663310634                       # Number of instructions issued
system.switch_cpus.iq.iqNonSpecInstsAdded        37285                       # Number of non-speculative instructions added to the IQ
system.switch_cpus.iq.iqSquashedInstsExamined    334550164                       # Number of squashed instructions iterated over during squash; mainly for profiling
system.switch_cpus.iq.iqSquashedInstsIssued      3311325                       # Number of squashed instructions issued
system.switch_cpus.iq.iqSquashedNonSpecRemoved        31889                       # Number of squashed non-spec instructions that were removed
system.switch_cpus.iq.iqSquashedOperandsExamined    481040672                       # Number of squashed operands that are examined and possibly removed from graph
system.switch_cpus.iq.issued_per_cycle::samples    232318842                       # Number of insts issued each cycle
system.switch_cpus.iq.issued_per_cycle::mean     2.855174                       # Number of insts issued each cycle
system.switch_cpus.iq.issued_per_cycle::stdev     2.614597                       # Number of insts issued each cycle
system.switch_cpus.iq.issued_per_cycle::underflows            0      0.00%      0.00% # Number of insts issued each cycle
system.switch_cpus.iq.issued_per_cycle::0     72057725     31.02%     31.02% # Number of insts issued each cycle
system.switch_cpus.iq.issued_per_cycle::1     22493709      9.68%     40.70% # Number of insts issued each cycle
system.switch_cpus.iq.issued_per_cycle::2     22217335      9.56%     50.26% # Number of insts issued each cycle
system.switch_cpus.iq.issued_per_cycle::3     22148788      9.53%     59.80% # Number of insts issued each cycle
system.switch_cpus.iq.issued_per_cycle::4     23053685      9.92%     69.72% # Number of insts issued each cycle
system.switch_cpus.iq.issued_per_cycle::5     22290032      9.59%     79.31% # Number of insts issued each cycle
system.switch_cpus.iq.issued_per_cycle::6     21186335      9.12%     88.43% # Number of insts issued each cycle
system.switch_cpus.iq.issued_per_cycle::7     15816883      6.81%     95.24% # Number of insts issued each cycle
system.switch_cpus.iq.issued_per_cycle::8     11054350      4.76%    100.00% # Number of insts issued each cycle
system.switch_cpus.iq.issued_per_cycle::overflows            0      0.00%    100.00% # Number of insts issued each cycle
system.switch_cpus.iq.issued_per_cycle::min_value            0                       # Number of insts issued each cycle
system.switch_cpus.iq.issued_per_cycle::max_value            8                       # Number of insts issued each cycle
system.switch_cpus.iq.issued_per_cycle::total    232318842                       # Number of insts issued each cycle
system.switch_cpus.iq.rate                   2.853365                       # Inst issue rate
system.switch_cpus.iq.vec_alu_accesses              0                       # Number of vector alu accesses
system.switch_cpus.iq.vec_inst_queue_reads            0                       # Number of vector instruction queue reads
system.switch_cpus.iq.vec_inst_queue_wakeup_accesses            0                       # Number of vector instruction queue wakeup accesses
system.switch_cpus.iq.vec_inst_queue_writes            0                       # Number of vector instruction queue writes
system.switch_cpus.memDep0.conflictingLoads      6981578                       # Number of conflicting loads.
system.switch_cpus.memDep0.conflictingStores      4737410                       # Number of conflicting stores.
system.switch_cpus.memDep0.insertedLoads    124053326                       # Number of loads inserted to the mem dependence unit.
system.switch_cpus.memDep0.insertedStores     41237507                       # Number of stores inserted to the mem dependence unit.
system.switch_cpus.misc_regfile_reads       259288229                       # number of misc regfile reads
system.switch_cpus.misc_regfile_writes              1                       # number of misc regfile writes
system.switch_cpus.numCycles                232466117                       # number of cpu cycles simulated
system.switch_cpus.numWorkItemsCompleted            0                       # number of work items this cpu completed
system.switch_cpus.numWorkItemsStarted              0                       # number of work items this cpu started
system.switch_cpus.timesIdled                    1018                       # Number of times that the entire CPU went into an idle state and unscheduled itself
system.clk_domain.clock                           333                       # Clock period in ticks
system.cpu.dcache.demand_hits::.cpu.data            1                       # number of demand (read+write) hits
system.cpu.dcache.demand_hits::.switch_cpus.data    110330800                       # number of demand (read+write) hits
system.cpu.dcache.demand_hits::total        110330801                       # number of demand (read+write) hits
system.cpu.dcache.overall_hits::.cpu.data            1                       # number of overall hits
system.cpu.dcache.overall_hits::.switch_cpus.data    110371835                       # number of overall hits
system.cpu.dcache.overall_hits::total       110371836                       # number of overall hits
system.cpu.dcache.demand_misses::.cpu.data            5                       # number of demand (read+write) misses
system.cpu.dcache.demand_misses::.switch_cpus.data      1783868                       # number of demand (read+write) misses
system.cpu.dcache.demand_misses::total        1783873                       # number of demand (read+write) misses
system.cpu.dcache.overall_misses::.cpu.data            5                       # number of overall misses
system.cpu.dcache.overall_misses::.switch_cpus.data      1792181                       # number of overall misses
system.cpu.dcache.overall_misses::total       1792186                       # number of overall misses
system.cpu.dcache.demand_miss_latency::.switch_cpus.data   9824433732                       # number of demand (read+write) miss cycles
system.cpu.dcache.demand_miss_latency::total   9824433732                       # number of demand (read+write) miss cycles
system.cpu.dcache.overall_miss_latency::.switch_cpus.data   9824433732                       # number of overall miss cycles
system.cpu.dcache.overall_miss_latency::total   9824433732                       # number of overall miss cycles
system.cpu.dcache.demand_accesses::.cpu.data            6                       # number of demand (read+write) accesses
system.cpu.dcache.demand_accesses::.switch_cpus.data    112114668                       # number of demand (read+write) accesses
system.cpu.dcache.demand_accesses::total    112114674                       # number of demand (read+write) accesses
system.cpu.dcache.overall_accesses::.cpu.data            6                       # number of overall (read+write) accesses
system.cpu.dcache.overall_accesses::.switch_cpus.data    112164016                       # number of overall (read+write) accesses
system.cpu.dcache.overall_accesses::total    112164022                       # number of overall (read+write) accesses
system.cpu.dcache.demand_miss_rate::.cpu.data     0.833333                       # miss rate for demand accesses
system.cpu.dcache.demand_miss_rate::.switch_cpus.data     0.015911                       # miss rate for demand accesses
system.cpu.dcache.demand_miss_rate::total     0.015911                       # miss rate for demand accesses
system.cpu.dcache.overall_miss_rate::.cpu.data     0.833333                       # miss rate for overall accesses
system.cpu.dcache.overall_miss_rate::.switch_cpus.data     0.015978                       # miss rate for overall accesses
system.cpu.dcache.overall_miss_rate::total     0.015978                       # miss rate for overall accesses
system.cpu.dcache.demand_avg_miss_latency::.switch_cpus.data  5507.377077                       # average overall miss latency
system.cpu.dcache.demand_avg_miss_latency::total  5507.361641                       # average overall miss latency
system.cpu.dcache.overall_avg_miss_latency::.switch_cpus.data  5481.831206                       # average overall miss latency
system.cpu.dcache.overall_avg_miss_latency::total  5481.815912                       # average overall miss latency
system.cpu.dcache.blocked_cycles::no_mshrs            0                       # number of cycles access was blocked
system.cpu.dcache.blocked_cycles::no_targets         1129                       # number of cycles access was blocked
system.cpu.dcache.blocked::no_mshrs                 0                       # number of cycles access was blocked
system.cpu.dcache.blocked::no_targets               9                       # number of cycles access was blocked
system.cpu.dcache.avg_blocked_cycles::no_mshrs          nan                       # average number of cycles each access was blocked
system.cpu.dcache.avg_blocked_cycles::no_targets   125.444444                       # average number of cycles each access was blocked
system.cpu.dcache.writebacks::.writebacks       809367                       # number of writebacks
system.cpu.dcache.writebacks::total            809367                       # number of writebacks
system.cpu.dcache.demand_mshr_hits::.switch_cpus.data       979043                       # number of demand (read+write) MSHR hits
system.cpu.dcache.demand_mshr_hits::total       979043                       # number of demand (read+write) MSHR hits
system.cpu.dcache.overall_mshr_hits::.switch_cpus.data       979043                       # number of overall MSHR hits
system.cpu.dcache.overall_mshr_hits::total       979043                       # number of overall MSHR hits
system.cpu.dcache.demand_mshr_misses::.switch_cpus.data       804825                       # number of demand (read+write) MSHR misses
system.cpu.dcache.demand_mshr_misses::total       804825                       # number of demand (read+write) MSHR misses
system.cpu.dcache.overall_mshr_misses::.switch_cpus.data       810575                       # number of overall MSHR misses
system.cpu.dcache.overall_mshr_misses::total       810575                       # number of overall MSHR misses
system.cpu.dcache.demand_mshr_miss_latency::.switch_cpus.data   4834142019                       # number of demand (read+write) MSHR miss cycles
system.cpu.dcache.demand_mshr_miss_latency::total   4834142019                       # number of demand (read+write) MSHR miss cycles
system.cpu.dcache.overall_mshr_miss_latency::.switch_cpus.data   4862100366                       # number of overall MSHR miss cycles
system.cpu.dcache.overall_mshr_miss_latency::total   4862100366                       # number of overall MSHR miss cycles
system.cpu.dcache.demand_mshr_miss_rate::.switch_cpus.data     0.007179                       # mshr miss rate for demand accesses
system.cpu.dcache.demand_mshr_miss_rate::total     0.007179                       # mshr miss rate for demand accesses
system.cpu.dcache.overall_mshr_miss_rate::.switch_cpus.data     0.007227                       # mshr miss rate for overall accesses
system.cpu.dcache.overall_mshr_miss_rate::total     0.007227                       # mshr miss rate for overall accesses
system.cpu.dcache.demand_avg_mshr_miss_latency::.switch_cpus.data  6006.451115                       # average overall mshr miss latency
system.cpu.dcache.demand_avg_mshr_miss_latency::total  6006.451115                       # average overall mshr miss latency
system.cpu.dcache.overall_avg_mshr_miss_latency::.switch_cpus.data  5998.334967                       # average overall mshr miss latency
system.cpu.dcache.overall_avg_mshr_miss_latency::total  5998.334967                       # average overall mshr miss latency
system.cpu.dcache.replacements                 809367                       # number of replacements
system.cpu.dcache.ReadReq_hits::.cpu.data            1                       # number of ReadReq hits
system.cpu.dcache.ReadReq_hits::.switch_cpus.data     85371992                       # number of ReadReq hits
system.cpu.dcache.ReadReq_hits::total        85371993                       # number of ReadReq hits
system.cpu.dcache.ReadReq_misses::.cpu.data            5                       # number of ReadReq misses
system.cpu.dcache.ReadReq_misses::.switch_cpus.data      1621899                       # number of ReadReq misses
system.cpu.dcache.ReadReq_misses::total       1621904                       # number of ReadReq misses
system.cpu.dcache.ReadReq_miss_latency::.switch_cpus.data   8495923572                       # number of ReadReq miss cycles
system.cpu.dcache.ReadReq_miss_latency::total   8495923572                       # number of ReadReq miss cycles
system.cpu.dcache.ReadReq_accesses::.cpu.data            6                       # number of ReadReq accesses(hits+misses)
system.cpu.dcache.ReadReq_accesses::.switch_cpus.data     86993891                       # number of ReadReq accesses(hits+misses)
system.cpu.dcache.ReadReq_accesses::total     86993897                       # number of ReadReq accesses(hits+misses)
system.cpu.dcache.ReadReq_miss_rate::.cpu.data     0.833333                       # miss rate for ReadReq accesses
system.cpu.dcache.ReadReq_miss_rate::.switch_cpus.data     0.018644                       # miss rate for ReadReq accesses
system.cpu.dcache.ReadReq_miss_rate::total     0.018644                       # miss rate for ReadReq accesses
system.cpu.dcache.ReadReq_avg_miss_latency::.switch_cpus.data  5238.256866                       # average ReadReq miss latency
system.cpu.dcache.ReadReq_avg_miss_latency::total  5238.240717                       # average ReadReq miss latency
system.cpu.dcache.ReadReq_mshr_hits::.switch_cpus.data       978405                       # number of ReadReq MSHR hits
system.cpu.dcache.ReadReq_mshr_hits::total       978405                       # number of ReadReq MSHR hits
system.cpu.dcache.ReadReq_mshr_misses::.switch_cpus.data       643494                       # number of ReadReq MSHR misses
system.cpu.dcache.ReadReq_mshr_misses::total       643494                       # number of ReadReq MSHR misses
system.cpu.dcache.ReadReq_mshr_miss_latency::.switch_cpus.data   3562344090                       # number of ReadReq MSHR miss cycles
system.cpu.dcache.ReadReq_mshr_miss_latency::total   3562344090                       # number of ReadReq MSHR miss cycles
system.cpu.dcache.ReadReq_mshr_miss_rate::.switch_cpus.data     0.007397                       # mshr miss rate for ReadReq accesses
system.cpu.dcache.ReadReq_mshr_miss_rate::total     0.007397                       # mshr miss rate for ReadReq accesses
system.cpu.dcache.ReadReq_avg_mshr_miss_latency::.switch_cpus.data  5535.939869                       # average ReadReq mshr miss latency
system.cpu.dcache.ReadReq_avg_mshr_miss_latency::total  5535.939869                       # average ReadReq mshr miss latency
system.cpu.dcache.WriteReq_hits::.switch_cpus.data     24958808                       # number of WriteReq hits
system.cpu.dcache.WriteReq_hits::total       24958808                       # number of WriteReq hits
system.cpu.dcache.WriteReq_misses::.switch_cpus.data       161969                       # number of WriteReq misses
system.cpu.dcache.WriteReq_misses::total       161969                       # number of WriteReq misses
system.cpu.dcache.WriteReq_miss_latency::.switch_cpus.data   1328510160                       # number of WriteReq miss cycles
system.cpu.dcache.WriteReq_miss_latency::total   1328510160                       # number of WriteReq miss cycles
system.cpu.dcache.WriteReq_accesses::.switch_cpus.data     25120777                       # number of WriteReq accesses(hits+misses)
system.cpu.dcache.WriteReq_accesses::total     25120777                       # number of WriteReq accesses(hits+misses)
system.cpu.dcache.WriteReq_miss_rate::.switch_cpus.data     0.006448                       # miss rate for WriteReq accesses
system.cpu.dcache.WriteReq_miss_rate::total     0.006448                       # miss rate for WriteReq accesses
system.cpu.dcache.WriteReq_avg_miss_latency::.switch_cpus.data  8202.249566                       # average WriteReq miss latency
system.cpu.dcache.WriteReq_avg_miss_latency::total  8202.249566                       # average WriteReq miss latency
system.cpu.dcache.WriteReq_mshr_hits::.switch_cpus.data          638                       # number of WriteReq MSHR hits
system.cpu.dcache.WriteReq_mshr_hits::total          638                       # number of WriteReq MSHR hits
system.cpu.dcache.WriteReq_mshr_misses::.switch_cpus.data       161331                       # number of WriteReq MSHR misses
system.cpu.dcache.WriteReq_mshr_misses::total       161331                       # number of WriteReq MSHR misses
system.cpu.dcache.WriteReq_mshr_miss_latency::.switch_cpus.data   1271797929                       # number of WriteReq MSHR miss cycles
system.cpu.dcache.WriteReq_mshr_miss_latency::total   1271797929                       # number of WriteReq MSHR miss cycles
system.cpu.dcache.WriteReq_mshr_miss_rate::.switch_cpus.data     0.006422                       # mshr miss rate for WriteReq accesses
system.cpu.dcache.WriteReq_mshr_miss_rate::total     0.006422                       # mshr miss rate for WriteReq accesses
system.cpu.dcache.WriteReq_avg_mshr_miss_latency::.switch_cpus.data  7883.159027                       # average WriteReq mshr miss latency
system.cpu.dcache.WriteReq_avg_mshr_miss_latency::total  7883.159027                       # average WriteReq mshr miss latency
system.cpu.dcache.SoftPFReq_hits::.switch_cpus.data        41035                       # number of SoftPFReq hits
system.cpu.dcache.SoftPFReq_hits::total         41035                       # number of SoftPFReq hits
system.cpu.dcache.SoftPFReq_misses::.switch_cpus.data         8313                       # number of SoftPFReq misses
system.cpu.dcache.SoftPFReq_misses::total         8313                       # number of SoftPFReq misses
system.cpu.dcache.SoftPFReq_accesses::.switch_cpus.data        49348                       # number of SoftPFReq accesses(hits+misses)
system.cpu.dcache.SoftPFReq_accesses::total        49348                       # number of SoftPFReq accesses(hits+misses)
system.cpu.dcache.SoftPFReq_miss_rate::.switch_cpus.data     0.168457                       # miss rate for SoftPFReq accesses
system.cpu.dcache.SoftPFReq_miss_rate::total     0.168457                       # miss rate for SoftPFReq accesses
system.cpu.dcache.SoftPFReq_mshr_misses::.switch_cpus.data         5750                       # number of SoftPFReq MSHR misses
system.cpu.dcache.SoftPFReq_mshr_misses::total         5750                       # number of SoftPFReq MSHR misses
system.cpu.dcache.SoftPFReq_mshr_miss_latency::.switch_cpus.data     27958347                       # number of SoftPFReq MSHR miss cycles
system.cpu.dcache.SoftPFReq_mshr_miss_latency::total     27958347                       # number of SoftPFReq MSHR miss cycles
system.cpu.dcache.SoftPFReq_mshr_miss_rate::.switch_cpus.data     0.116519                       # mshr miss rate for SoftPFReq accesses
system.cpu.dcache.SoftPFReq_mshr_miss_rate::total     0.116519                       # mshr miss rate for SoftPFReq accesses
system.cpu.dcache.SoftPFReq_avg_mshr_miss_latency::.switch_cpus.data  4862.321217                       # average SoftPFReq mshr miss latency
system.cpu.dcache.SoftPFReq_avg_mshr_miss_latency::total  4862.321217                       # average SoftPFReq mshr miss latency
system.cpu.dcache.power_state.pwrStateResidencyTicks::UNDEFINED 18651056097843                       # Cumulative time (in ticks) in various power states
system.cpu.dcache.tags.tagsinuse           511.732110                       # Cycle average of tags in use
system.cpu.dcache.tags.total_refs           111182430                       # Total number of references to valid blocks.
system.cpu.dcache.tags.sampled_refs            809879                       # Sample count of references to valid blocks.
system.cpu.dcache.tags.avg_refs            137.282767                       # Average number of references to valid blocks.
system.cpu.dcache.tags.warmup_cycle      18573644870892                       # Cycle when the warmup percentage was hit.
system.cpu.dcache.tags.occ_blocks::.cpu.data     0.519960                       # Average occupied blocks per requestor
system.cpu.dcache.tags.occ_blocks::.switch_cpus.data   511.212150                       # Average occupied blocks per requestor
system.cpu.dcache.tags.occ_percent::.cpu.data     0.001016                       # Average percentage of cache occupancy
system.cpu.dcache.tags.occ_percent::.switch_cpus.data     0.998461                       # Average percentage of cache occupancy
system.cpu.dcache.tags.occ_percent::total     0.999477                       # Average percentage of cache occupancy
system.cpu.dcache.tags.occ_task_id_blocks::1024          512                       # Occupied blocks per task id
system.cpu.dcache.tags.age_task_id_blocks_1024::0           38                       # Occupied blocks per task id
system.cpu.dcache.tags.age_task_id_blocks_1024::1          313                       # Occupied blocks per task id
system.cpu.dcache.tags.age_task_id_blocks_1024::2           90                       # Occupied blocks per task id
system.cpu.dcache.tags.age_task_id_blocks_1024::3           48                       # Occupied blocks per task id
system.cpu.dcache.tags.age_task_id_blocks_1024::4           23                       # Occupied blocks per task id
system.cpu.dcache.tags.occ_task_id_percent::1024            1                       # Percentage of cache occupancy per task id
system.cpu.dcache.tags.tag_accesses         898122055                       # Number of tag accesses
system.cpu.dcache.tags.data_accesses        898122055                       # Number of data accesses
system.cpu.dcache.tags.power_state.pwrStateResidencyTicks::UNDEFINED 18651056097843                       # Cumulative time (in ticks) in various power states
system.cpu.dtb.rdAccesses                           6                       # TLB accesses on read requests
system.cpu.dtb.wrAccesses                           0                       # TLB accesses on write requests
system.cpu.dtb.rdMisses                             0                       # TLB misses on read requests
system.cpu.dtb.wrMisses                             0                       # TLB misses on write requests
system.cpu.dtb.walker.power_state.pwrStateResidencyTicks::UNDEFINED 18651056097843                       # Cumulative time (in ticks) in various power states
system.cpu.icache.demand_hits::.cpu.inst           23                       # number of demand (read+write) hits
system.cpu.icache.demand_hits::.switch_cpus.inst     81689938                       # number of demand (read+write) hits
system.cpu.icache.demand_hits::total         81689961                       # number of demand (read+write) hits
system.cpu.icache.overall_hits::.cpu.inst           23                       # number of overall hits
system.cpu.icache.overall_hits::.switch_cpus.inst     81689938                       # number of overall hits
system.cpu.icache.overall_hits::total        81689961                       # number of overall hits
system.cpu.icache.demand_misses::.cpu.inst            2                       # number of demand (read+write) misses
system.cpu.icache.demand_misses::.switch_cpus.inst        23891                       # number of demand (read+write) misses
system.cpu.icache.demand_misses::total          23893                       # number of demand (read+write) misses
system.cpu.icache.overall_misses::.cpu.inst            2                       # number of overall misses
system.cpu.icache.overall_misses::.switch_cpus.inst        23891                       # number of overall misses
system.cpu.icache.overall_misses::total         23893                       # number of overall misses
system.cpu.icache.demand_miss_latency::.switch_cpus.inst    227604168                       # number of demand (read+write) miss cycles
system.cpu.icache.demand_miss_latency::total    227604168                       # number of demand (read+write) miss cycles
system.cpu.icache.overall_miss_latency::.switch_cpus.inst    227604168                       # number of overall miss cycles
system.cpu.icache.overall_miss_latency::total    227604168                       # number of overall miss cycles
system.cpu.icache.demand_accesses::.cpu.inst           25                       # number of demand (read+write) accesses
system.cpu.icache.demand_accesses::.switch_cpus.inst     81713829                       # number of demand (read+write) accesses
system.cpu.icache.demand_accesses::total     81713854                       # number of demand (read+write) accesses
system.cpu.icache.overall_accesses::.cpu.inst           25                       # number of overall (read+write) accesses
system.cpu.icache.overall_accesses::.switch_cpus.inst     81713829                       # number of overall (read+write) accesses
system.cpu.icache.overall_accesses::total     81713854                       # number of overall (read+write) accesses
system.cpu.icache.demand_miss_rate::.cpu.inst     0.080000                       # miss rate for demand accesses
system.cpu.icache.demand_miss_rate::.switch_cpus.inst     0.000292                       # miss rate for demand accesses
system.cpu.icache.demand_miss_rate::total     0.000292                       # miss rate for demand accesses
system.cpu.icache.overall_miss_rate::.cpu.inst     0.080000                       # miss rate for overall accesses
system.cpu.icache.overall_miss_rate::.switch_cpus.inst     0.000292                       # miss rate for overall accesses
system.cpu.icache.overall_miss_rate::total     0.000292                       # miss rate for overall accesses
system.cpu.icache.demand_avg_miss_latency::.switch_cpus.inst  9526.774434                       # average overall miss latency
system.cpu.icache.demand_avg_miss_latency::total  9525.976981                       # average overall miss latency
system.cpu.icache.overall_avg_miss_latency::.switch_cpus.inst  9526.774434                       # average overall miss latency
system.cpu.icache.overall_avg_miss_latency::total  9525.976981                       # average overall miss latency
system.cpu.icache.blocked_cycles::no_mshrs            0                       # number of cycles access was blocked
system.cpu.icache.blocked_cycles::no_targets            0                       # number of cycles access was blocked
system.cpu.icache.blocked::no_mshrs                 0                       # number of cycles access was blocked
system.cpu.icache.blocked::no_targets               0                       # number of cycles access was blocked
system.cpu.icache.avg_blocked_cycles::no_mshrs          nan                       # average number of cycles each access was blocked
system.cpu.icache.avg_blocked_cycles::no_targets          nan                       # average number of cycles each access was blocked
system.cpu.icache.writebacks::.writebacks        21660                       # number of writebacks
system.cpu.icache.writebacks::total             21660                       # number of writebacks
system.cpu.icache.demand_mshr_hits::.switch_cpus.inst         1721                       # number of demand (read+write) MSHR hits
system.cpu.icache.demand_mshr_hits::total         1721                       # number of demand (read+write) MSHR hits
system.cpu.icache.overall_mshr_hits::.switch_cpus.inst         1721                       # number of overall MSHR hits
system.cpu.icache.overall_mshr_hits::total         1721                       # number of overall MSHR hits
system.cpu.icache.demand_mshr_misses::.switch_cpus.inst        22170                       # number of demand (read+write) MSHR misses
system.cpu.icache.demand_mshr_misses::total        22170                       # number of demand (read+write) MSHR misses
system.cpu.icache.overall_mshr_misses::.switch_cpus.inst        22170                       # number of overall MSHR misses
system.cpu.icache.overall_mshr_misses::total        22170                       # number of overall MSHR misses
system.cpu.icache.demand_mshr_miss_latency::.switch_cpus.inst    192271869                       # number of demand (read+write) MSHR miss cycles
system.cpu.icache.demand_mshr_miss_latency::total    192271869                       # number of demand (read+write) MSHR miss cycles
system.cpu.icache.overall_mshr_miss_latency::.switch_cpus.inst    192271869                       # number of overall MSHR miss cycles
system.cpu.icache.overall_mshr_miss_latency::total    192271869                       # number of overall MSHR miss cycles
system.cpu.icache.demand_mshr_miss_rate::.switch_cpus.inst     0.000271                       # mshr miss rate for demand accesses
system.cpu.icache.demand_mshr_miss_rate::total     0.000271                       # mshr miss rate for demand accesses
system.cpu.icache.overall_mshr_miss_rate::.switch_cpus.inst     0.000271                       # mshr miss rate for overall accesses
system.cpu.icache.overall_mshr_miss_rate::total     0.000271                       # mshr miss rate for overall accesses
system.cpu.icache.demand_avg_mshr_miss_latency::.switch_cpus.inst  8672.614750                       # average overall mshr miss latency
system.cpu.icache.demand_avg_mshr_miss_latency::total  8672.614750                       # average overall mshr miss latency
system.cpu.icache.overall_avg_mshr_miss_latency::.switch_cpus.inst  8672.614750                       # average overall mshr miss latency
system.cpu.icache.overall_avg_mshr_miss_latency::total  8672.614750                       # average overall mshr miss latency
system.cpu.icache.replacements                  21660                       # number of replacements
system.cpu.icache.ReadReq_hits::.cpu.inst           23                       # number of ReadReq hits
system.cpu.icache.ReadReq_hits::.switch_cpus.inst     81689938                       # number of ReadReq hits
system.cpu.icache.ReadReq_hits::total        81689961                       # number of ReadReq hits
system.cpu.icache.ReadReq_misses::.cpu.inst            2                       # number of ReadReq misses
system.cpu.icache.ReadReq_misses::.switch_cpus.inst        23891                       # number of ReadReq misses
system.cpu.icache.ReadReq_misses::total         23893                       # number of ReadReq misses
system.cpu.icache.ReadReq_miss_latency::.switch_cpus.inst    227604168                       # number of ReadReq miss cycles
system.cpu.icache.ReadReq_miss_latency::total    227604168                       # number of ReadReq miss cycles
system.cpu.icache.ReadReq_accesses::.cpu.inst           25                       # number of ReadReq accesses(hits+misses)
system.cpu.icache.ReadReq_accesses::.switch_cpus.inst     81713829                       # number of ReadReq accesses(hits+misses)
system.cpu.icache.ReadReq_accesses::total     81713854                       # number of ReadReq accesses(hits+misses)
system.cpu.icache.ReadReq_miss_rate::.cpu.inst     0.080000                       # miss rate for ReadReq accesses
system.cpu.icache.ReadReq_miss_rate::.switch_cpus.inst     0.000292                       # miss rate for ReadReq accesses
system.cpu.icache.ReadReq_miss_rate::total     0.000292                       # miss rate for ReadReq accesses
system.cpu.icache.ReadReq_avg_miss_latency::.switch_cpus.inst  9526.774434                       # average ReadReq miss latency
system.cpu.icache.ReadReq_avg_miss_latency::total  9525.976981                       # average ReadReq miss latency
system.cpu.icache.ReadReq_mshr_hits::.switch_cpus.inst         1721                       # number of ReadReq MSHR hits
system.cpu.icache.ReadReq_mshr_hits::total         1721                       # number of ReadReq MSHR hits
system.cpu.icache.ReadReq_mshr_misses::.switch_cpus.inst        22170                       # number of ReadReq MSHR misses
system.cpu.icache.ReadReq_mshr_misses::total        22170                       # number of ReadReq MSHR misses
system.cpu.icache.ReadReq_mshr_miss_latency::.switch_cpus.inst    192271869                       # number of ReadReq MSHR miss cycles
system.cpu.icache.ReadReq_mshr_miss_latency::total    192271869                       # number of ReadReq MSHR miss cycles
system.cpu.icache.ReadReq_mshr_miss_rate::.switch_cpus.inst     0.000271                       # mshr miss rate for ReadReq accesses
system.cpu.icache.ReadReq_mshr_miss_rate::total     0.000271                       # mshr miss rate for ReadReq accesses
system.cpu.icache.ReadReq_avg_mshr_miss_latency::.switch_cpus.inst  8672.614750                       # average ReadReq mshr miss latency
system.cpu.icache.ReadReq_avg_mshr_miss_latency::total  8672.614750                       # average ReadReq mshr miss latency
system.cpu.icache.power_state.pwrStateResidencyTicks::UNDEFINED 18651056097843                       # Cumulative time (in ticks) in various power states
system.cpu.icache.tags.tagsinuse           501.257997                       # Cycle average of tags in use
system.cpu.icache.tags.total_refs            81712133                       # Total number of references to valid blocks.
system.cpu.icache.tags.sampled_refs             22172                       # Sample count of references to valid blocks.
system.cpu.icache.tags.avg_refs           3685.374932                       # Average number of references to valid blocks.
system.cpu.icache.tags.warmup_cycle      18573644870892                       # Cycle when the warmup percentage was hit.
system.cpu.icache.tags.occ_blocks::.cpu.inst     0.245934                       # Average occupied blocks per requestor
system.cpu.icache.tags.occ_blocks::.switch_cpus.inst   501.012063                       # Average occupied blocks per requestor
system.cpu.icache.tags.occ_percent::.cpu.inst     0.000480                       # Average percentage of cache occupancy
system.cpu.icache.tags.occ_percent::.switch_cpus.inst     0.978539                       # Average percentage of cache occupancy
system.cpu.icache.tags.occ_percent::total     0.979020                       # Average percentage of cache occupancy
system.cpu.icache.tags.occ_task_id_blocks::1024          512                       # Occupied blocks per task id
system.cpu.icache.tags.age_task_id_blocks_1024::1           16                       # Occupied blocks per task id
system.cpu.icache.tags.age_task_id_blocks_1024::2           11                       # Occupied blocks per task id
system.cpu.icache.tags.age_task_id_blocks_1024::3           53                       # Occupied blocks per task id
system.cpu.icache.tags.age_task_id_blocks_1024::4          432                       # Occupied blocks per task id
system.cpu.icache.tags.occ_task_id_percent::1024            1                       # Percentage of cache occupancy per task id
system.cpu.icache.tags.tag_accesses         653733004                       # Number of tag accesses
system.cpu.icache.tags.data_accesses        653733004                       # Number of data accesses
system.cpu.icache.tags.power_state.pwrStateResidencyTicks::UNDEFINED 18651056097843                       # Cumulative time (in ticks) in various power states
system.cpu.interrupts.clk_domain.clock           5328                       # Clock period in ticks
system.cpu.itb.rdAccesses                           0                       # TLB accesses on read requests
system.cpu.itb.wrAccesses                          25                       # TLB accesses on write requests
system.cpu.itb.rdMisses                             0                       # TLB misses on read requests
system.cpu.itb.wrMisses                             0                       # TLB misses on write requests
system.cpu.itb.walker.power_state.pwrStateResidencyTicks::UNDEFINED 18651056097843                       # Cumulative time (in ticks) in various power states
system.cpu.l2bus.trans_dist::ReadResp          671395                       # Transaction distribution
system.cpu.l2bus.trans_dist::WritebackDirty       390394                       # Transaction distribution
system.cpu.l2bus.trans_dist::WritebackClean       465427                       # Transaction distribution
system.cpu.l2bus.trans_dist::UpgradeReq           702                       # Transaction distribution
system.cpu.l2bus.trans_dist::UpgradeResp          702                       # Transaction distribution
system.cpu.l2bus.trans_dist::ReadExReq         160656                       # Transaction distribution
system.cpu.l2bus.trans_dist::ReadExResp        160656                       # Transaction distribution
system.cpu.l2bus.trans_dist::ReadSharedReq       671395                       # Transaction distribution
system.cpu.l2bus.pkt_count_system.cpu.icache.mem_side_port::system.cpu.l2cache.cpu_side_port        66004                       # Packet count per connected requestor and responder (bytes)
system.cpu.l2bus.pkt_count_system.cpu.dcache.mem_side_port::system.cpu.l2cache.cpu_side_port      2430529                       # Packet count per connected requestor and responder (bytes)
system.cpu.l2bus.pkt_count::total             2496533                       # Packet count per connected requestor and responder (bytes)
system.cpu.l2bus.pkt_size_system.cpu.icache.mem_side_port::system.cpu.l2cache.cpu_side_port      2805248                       # Cumulative packet size per connected requestor and responder (bytes)
system.cpu.l2bus.pkt_size_system.cpu.dcache.mem_side_port::system.cpu.l2cache.cpu_side_port    103631744                       # Cumulative packet size per connected requestor and responder (bytes)
system.cpu.l2bus.pkt_size::total            106436992                       # Cumulative packet size per connected requestor and responder (bytes)
system.cpu.l2bus.snoops                         24794                       # Total snoops (count)
system.cpu.l2bus.snoopTraffic                 1586816                       # Total snoop traffic (bytes)
system.cpu.l2bus.snoop_fanout::samples         857547                       # Request fanout histogram
system.cpu.l2bus.snoop_fanout::mean          0.001849                       # Request fanout histogram
system.cpu.l2bus.snoop_fanout::stdev         0.042966                       # Request fanout histogram
system.cpu.l2bus.snoop_fanout::underflows            0      0.00%      0.00% # Request fanout histogram
system.cpu.l2bus.snoop_fanout::0               855961     99.82%     99.82% # Request fanout histogram
system.cpu.l2bus.snoop_fanout::1                 1586      0.18%    100.00% # Request fanout histogram
system.cpu.l2bus.snoop_fanout::2                    0      0.00%    100.00% # Request fanout histogram
system.cpu.l2bus.snoop_fanout::3                    0      0.00%    100.00% # Request fanout histogram
system.cpu.l2bus.snoop_fanout::overflows            0      0.00%    100.00% # Request fanout histogram
system.cpu.l2bus.snoop_fanout::min_value            0                       # Request fanout histogram
system.cpu.l2bus.snoop_fanout::max_value            1                       # Request fanout histogram
system.cpu.l2bus.snoop_fanout::total           857547                       # Request fanout histogram
system.cpu.l2bus.power_state.pwrStateResidencyTicks::UNDEFINED 18651056097843                       # Cumulative time (in ticks) in various power states
system.cpu.l2bus.reqLayer0.occupancy       1107500391                       # Layer occupancy (ticks)
system.cpu.l2bus.reqLayer0.utilization            1.4                       # Layer utilization (%)
system.cpu.l2bus.respLayer0.occupancy        22244774                       # Layer occupancy (ticks)
system.cpu.l2bus.respLayer0.utilization           0.0                       # Layer utilization (%)
system.cpu.l2bus.respLayer1.occupancy       809304532                       # Layer occupancy (ticks)
system.cpu.l2bus.respLayer1.utilization           1.0                       # Layer utilization (%)
system.cpu.l2cache.demand_hits::.switch_cpus.inst        20559                       # number of demand (read+write) hits
system.cpu.l2cache.demand_hits::.switch_cpus.data       783573                       # number of demand (read+write) hits
system.cpu.l2cache.demand_hits::total          804132                       # number of demand (read+write) hits
system.cpu.l2cache.overall_hits::.switch_cpus.inst        20559                       # number of overall hits
system.cpu.l2cache.overall_hits::.switch_cpus.data       783573                       # number of overall hits
system.cpu.l2cache.overall_hits::total         804132                       # number of overall hits
system.cpu.l2cache.demand_misses::.cpu.inst            2                       # number of demand (read+write) misses
system.cpu.l2cache.demand_misses::.cpu.data            5                       # number of demand (read+write) misses
system.cpu.l2cache.demand_misses::.switch_cpus.inst         1611                       # number of demand (read+write) misses
system.cpu.l2cache.demand_misses::.switch_cpus.data        26301                       # number of demand (read+write) misses
system.cpu.l2cache.demand_misses::total         27919                       # number of demand (read+write) misses
system.cpu.l2cache.overall_misses::.cpu.inst            2                       # number of overall misses
system.cpu.l2cache.overall_misses::.cpu.data            5                       # number of overall misses
system.cpu.l2cache.overall_misses::.switch_cpus.inst         1611                       # number of overall misses
system.cpu.l2cache.overall_misses::.switch_cpus.data        26301                       # number of overall misses
system.cpu.l2cache.overall_misses::total        27919                       # number of overall misses
system.cpu.l2cache.demand_miss_latency::.switch_cpus.inst    100533366                       # number of demand (read+write) miss cycles
system.cpu.l2cache.demand_miss_latency::.switch_cpus.data   1364463171                       # number of demand (read+write) miss cycles
system.cpu.l2cache.demand_miss_latency::total   1464996537                       # number of demand (read+write) miss cycles
system.cpu.l2cache.overall_miss_latency::.switch_cpus.inst    100533366                       # number of overall miss cycles
system.cpu.l2cache.overall_miss_latency::.switch_cpus.data   1364463171                       # number of overall miss cycles
system.cpu.l2cache.overall_miss_latency::total   1464996537                       # number of overall miss cycles
system.cpu.l2cache.demand_accesses::.cpu.inst            2                       # number of demand (read+write) accesses
system.cpu.l2cache.demand_accesses::.cpu.data            5                       # number of demand (read+write) accesses
system.cpu.l2cache.demand_accesses::.switch_cpus.inst        22170                       # number of demand (read+write) accesses
system.cpu.l2cache.demand_accesses::.switch_cpus.data       809874                       # number of demand (read+write) accesses
system.cpu.l2cache.demand_accesses::total       832051                       # number of demand (read+write) accesses
system.cpu.l2cache.overall_accesses::.cpu.inst            2                       # number of overall (read+write) accesses
system.cpu.l2cache.overall_accesses::.cpu.data            5                       # number of overall (read+write) accesses
system.cpu.l2cache.overall_accesses::.switch_cpus.inst        22170                       # number of overall (read+write) accesses
system.cpu.l2cache.overall_accesses::.switch_cpus.data       809874                       # number of overall (read+write) accesses
system.cpu.l2cache.overall_accesses::total       832051                       # number of overall (read+write) accesses
system.cpu.l2cache.demand_miss_rate::.cpu.inst            1                       # miss rate for demand accesses
system.cpu.l2cache.demand_miss_rate::.cpu.data            1                       # miss rate for demand accesses
system.cpu.l2cache.demand_miss_rate::.switch_cpus.inst     0.072666                       # miss rate for demand accesses
system.cpu.l2cache.demand_miss_rate::.switch_cpus.data     0.032475                       # miss rate for demand accesses
system.cpu.l2cache.demand_miss_rate::total     0.033554                       # miss rate for demand accesses
system.cpu.l2cache.overall_miss_rate::.cpu.inst            1                       # miss rate for overall accesses
system.cpu.l2cache.overall_miss_rate::.cpu.data            1                       # miss rate for overall accesses
system.cpu.l2cache.overall_miss_rate::.switch_cpus.inst     0.072666                       # miss rate for overall accesses
system.cpu.l2cache.overall_miss_rate::.switch_cpus.data     0.032475                       # miss rate for overall accesses
system.cpu.l2cache.overall_miss_rate::total     0.033554                       # miss rate for overall accesses
system.cpu.l2cache.demand_avg_miss_latency::.switch_cpus.inst 62404.324022                       # average overall miss latency
system.cpu.l2cache.demand_avg_miss_latency::.switch_cpus.data 51878.756359                       # average overall miss latency
system.cpu.l2cache.demand_avg_miss_latency::total 52473.102081                       # average overall miss latency
system.cpu.l2cache.overall_avg_miss_latency::.switch_cpus.inst 62404.324022                       # average overall miss latency
system.cpu.l2cache.overall_avg_miss_latency::.switch_cpus.data 51878.756359                       # average overall miss latency
system.cpu.l2cache.overall_avg_miss_latency::total 52473.102081                       # average overall miss latency
system.cpu.l2cache.blocked_cycles::no_mshrs            0                       # number of cycles access was blocked
system.cpu.l2cache.blocked_cycles::no_targets            0                       # number of cycles access was blocked
system.cpu.l2cache.blocked::no_mshrs                0                       # number of cycles access was blocked
system.cpu.l2cache.blocked::no_targets              0                       # number of cycles access was blocked
system.cpu.l2cache.avg_blocked_cycles::no_mshrs          nan                       # average number of cycles each access was blocked
system.cpu.l2cache.avg_blocked_cycles::no_targets          nan                       # average number of cycles each access was blocked
system.cpu.l2cache.writebacks::.writebacks        24794                       # number of writebacks
system.cpu.l2cache.writebacks::total            24794                       # number of writebacks
system.cpu.l2cache.demand_mshr_misses::.switch_cpus.inst         1611                       # number of demand (read+write) MSHR misses
system.cpu.l2cache.demand_mshr_misses::.switch_cpus.data        26301                       # number of demand (read+write) MSHR misses
[...]
system.switch_cpus.commit.numCommittedDist::1     55606529     29.74%     56.42% # Number of insts commited each cycle
system.switch_cpus.commit.numCommittedDist::2     16022911      8.57%     64.99% # Number of insts commited each cycle
system.switch_cpus.commit.numCommittedDist::3     19074676     10.20%     75.19% # Number of insts commited each cycle
system.switch_cpus.commit.numCommittedDist::4      8552540      4.57%     79.77% # Number of insts commited each cycle
system.switch_cpus.commit.numCommittedDist::5      4232712      2.26%     82.03% # Number of insts commited each cycle
system.switch_cpus.commit.numCommittedDist::6      3315833      1.77%     83.81% # Number of insts commited each cycle
system.switch_cpus.commit.numCommittedDist::7      2541319      1.36%     85.16% # Number of insts commited each cycle
system.switch_cpus.commit.numCommittedDist::8     27739214     14.84%    100.00% # Number of insts commited each cycle
system.switch_cpus.commit.numCommittedDist::overflows            0      0.00%    100.00% # Number of insts commited each cycle
system.switch_cpus.commit.numCommittedDist::min_value            0                       # Number of insts commited each cycle
system.switch_cpus.commit.numCommittedDist::max_value            8                       # Number of insts commited each cycle
system.switch_cpus.commit.numCommittedDist::total    186980095                       # Number of insts commited each cycle
system.switch_cpus.commit.instsCommitted    250000000                       # Number of instructions committed
system.switch_cpus.commit.opsCommitted      459848042                       # Number of ops (including micro ops) committed
system.switch_cpus.commit.memRefs            94323543                       # Number of memory references committed
system.switch_cpus.commit.loads              69207116                       # Number of loads committed
system.switch_cpus.commit.amos                      0                       # Number of atomic instructions committed
system.switch_cpus.commit.membars                  80                       # Number of memory barriers committed
system.switch_cpus.commit.branches           44717217                       # Number of branches committed
system.switch_cpus.commit.vector                    0                       # Number of committed Vector instructions.
system.switch_cpus.commit.floating            1967972                       # Number of committed floating point instructions.
system.switch_cpus.commit.integer           456292707                       # Number of committed integer instructions.
system.switch_cpus.commit.functionCalls       6687410                       # Number of function calls committed.
system.switch_cpus.commit.committedInstType_0::No_OpClass      2969199      0.65%      0.65% # Class of committed instruction
system.switch_cpus.commit.committedInstType_0::IntAlu    352572506     76.67%     77.32% # Class of committed instruction
system.switch_cpus.commit.committedInstType_0::IntMult      2723513      0.59%     77.91% # Class of committed instruction
system.switch_cpus.commit.committedInstType_0::IntDiv      6755289      1.47%     79.38% # Class of committed instruction
system.switch_cpus.commit.committedInstType_0::FloatAdd        32287      0.01%     79.39% # Class of committed instruction
system.switch_cpus.commit.committedInstType_0::FloatCmp            0      0.00%     79.39% # Class of committed instruction
system.switch_cpus.commit.committedInstType_0::FloatCvt            0      0.00%     79.39% # Class of committed instruction
system.switch_cpus.commit.committedInstType_0::FloatMult            0      0.00%     79.39% # Class of committed instruction
system.switch_cpus.commit.committedInstType_0::FloatMultAcc            0      0.00%     79.39% # Class of committed instruction
system.switch_cpus.commit.committedInstType_0::FloatDiv            0      0.00%     79.39% # Class of committed instruction
system.switch_cpus.commit.committedInstType_0::FloatMisc            0      0.00%     79.39% # Class of committed instruction
system.switch_cpus.commit.committedInstType_0::FloatSqrt            0      0.00%     79.39% # Class of committed instruction
system.switch_cpus.commit.committedInstType_0::SimdAdd            0      0.00%     79.39% # Class of committed instruction
system.switch_cpus.commit.committedInstType_0::SimdAddAcc            0      0.00%     79.39% # Class of committed instruction
system.switch_cpus.commit.committedInstType_0::SimdAlu        34388      0.01%     79.39% # Class of committed instruction
system.switch_cpus.commit.committedInstType_0::SimdCmp            0      0.00%     79.39% # Class of committed instruction
system.switch_cpus.commit.committedInstType_0::SimdCvt           24      0.00%     79.39% # Class of committed instruction
system.switch_cpus.commit.committedInstType_0::SimdMisc       107722      0.02%     79.42% # Class of committed instruction
system.switch_cpus.commit.committedInstType_0::SimdMult            0      0.00%     79.42% # Class of committed instruction
system.switch_cpus.commit.committedInstType_0::SimdMultAcc            0      0.00%     79.42% # Class of committed instruction
system.switch_cpus.commit.committedInstType_0::SimdShift            0      0.00%     79.42% # Class of committed instruction
system.switch_cpus.commit.committedInstType_0::SimdShiftAcc            0      0.00%     79.42% # Class of committed instruction
system.switch_cpus.commit.committedInstType_0::SimdDiv            0      0.00%     79.42% # Class of committed instruction
system.switch_cpus.commit.committedInstType_0::SimdSqrt            0      0.00%     79.42% # Class of committed instruction
system.switch_cpus.commit.committedInstType_0::SimdFloatAdd       103568      0.02%     79.44% # Class of committed instruction
system.switch_cpus.commit.committedInstType_0::SimdFloatAlu            0      0.00%     79.44% # Class of committed instruction
system.switch_cpus.commit.committedInstType_0::SimdFloatCmp            0      0.00%     79.44% # Class of committed instruction
system.switch_cpus.commit.committedInstType_0::SimdFloatCvt       224688      0.05%     79.49% # Class of committed instruction
system.switch_cpus.commit.committedInstType_0::SimdFloatDiv         1315      0.00%     79.49% # Class of committed instruction
system.switch_cpus.commit.committedInstType_0::SimdFloatMisc            0      0.00%     79.49% # Class of committed instruction
system.switch_cpus.commit.committedInstType_0::SimdFloatMult            0      0.00%     79.49% # Class of committed instruction
system.switch_cpus.commit.committedInstType_0::SimdFloatMultAcc            0      0.00%     79.49% # Class of committed instruction
system.switch_cpus.commit.committedInstType_0::SimdFloatSqrt            0      0.00%     79.49% # Class of committed instruction
system.switch_cpus.commit.committedInstType_0::SimdReduceAdd            0      0.00%     79.49% # Class of committed instruction
system.switch_cpus.commit.committedInstType_0::SimdReduceAlu            0      0.00%     79.49% # Class of committed instruction
system.switch_cpus.commit.committedInstType_0::SimdReduceCmp            0      0.00%     79.49% # Class of committed instruction
system.switch_cpus.commit.committedInstType_0::SimdFloatReduceAdd            0      0.00%     79.49% # Class of committed instruction
system.switch_cpus.commit.committedInstType_0::SimdFloatReduceCmp            0      0.00%     79.49% # Class of committed instruction
system.switch_cpus.commit.committedInstType_0::SimdAes            0      0.00%     79.49% # Class of committed instruction
system.switch_cpus.commit.committedInstType_0::SimdAesMix            0      0.00%     79.49% # Class of committed instruction
system.switch_cpus.commit.committedInstType_0::SimdSha1Hash            0      0.00%     79.49% # Class of committed instruction
system.switch_cpus.commit.committedInstType_0::SimdSha1Hash2            0      0.00%     79.49% # Class of committed instruction
system.switch_cpus.commit.committedInstType_0::SimdSha256Hash            0      0.00%     79.49% # Class of committed instruction
system.switch_cpus.commit.committedInstType_0::SimdSha256Hash2            0      0.00%     79.49% # Class of committed instruction
system.switch_cpus.commit.committedInstType_0::SimdShaSigma2            0      0.00%     79.49% # Class of committed instruction
system.switch_cpus.commit.committedInstType_0::SimdShaSigma3            0      0.00%     79.49% # Class of committed instruction
system.switch_cpus.commit.committedInstType_0::SimdPredAlu            0      0.00%     79.49% # Class of committed instruction
system.switch_cpus.commit.committedInstType_0::MemRead     68378753     14.87%     94.36% # Class of committed instruction
system.switch_cpus.commit.committedInstType_0::MemWrite     24491523      5.33%     99.68% # Class of committed instruction
system.switch_cpus.commit.committedInstType_0::FloatMemRead       828363      0.18%     99.86% # Class of committed instruction
system.switch_cpus.commit.committedInstType_0::FloatMemWrite       624904      0.14%    100.00% # Class of committed instruction
system.switch_cpus.commit.committedInstType_0::IprAccess            0      0.00%    100.00% # Class of committed instruction
system.switch_cpus.commit.committedInstType_0::InstPrefetch            0      0.00%    100.00% # Class of committed instruction
system.switch_cpus.commit.committedInstType_0::total    459848042                       # Class of committed instruction
system.switch_cpus.commit.commitEligibleSamples     27739214                       # number cycles where commit BW limit reached
system.switch_cpus.decode.idleCycles         22340692                       # Number of cycles decode is idle
system.switch_cpus.decode.blockedCycles      82745030                       # Number of cycles decode is blocked
system.switch_cpus.decode.runCycles          95654832                       # Number of cycles decode is running
system.switch_cpus.decode.unblockCycles      26363602                       # Number of cycles decode is unblocking
system.switch_cpus.decode.squashCycles        5214671                       # Number of cycles decode is squashing
system.switch_cpus.decode.branchResolved     40329140                       # Number of times decode resolved a  branch
system.switch_cpus.decode.branchMispred        342821                       # Number of times decode detected a branch misprediction
system.switch_cpus.decode.decodedInsts      882275270                       # Number of instructions handled by decode
system.switch_cpus.decode.squashedInsts       1950581                       # Number of squashed instructions handled by decode
system.switch_cpus.dtb.rdAccesses           100057185                       # TLB accesses on read requests
system.switch_cpus.dtb.wrAccesses            33077105                       # TLB accesses on write requests
system.switch_cpus.dtb.rdMisses                131124                       # TLB misses on read requests
system.switch_cpus.dtb.wrMisses                  5809                       # TLB misses on write requests
system.switch_cpus.dtb.walker.power_state.pwrStateResidencyTicks::UNDEFINED 18651056097843                       # Cumulative time (in ticks) in various power states
system.switch_cpus.fetch.icacheStallCycles      4979536                       # Number of cycles fetch is stalled on an Icache miss
system.switch_cpus.fetch.insts              536155674                       # Number of instructions fetch has processed
system.switch_cpus.fetch.branches            99033758                       # Number of branches that fetch encountered
system.switch_cpus.fetch.predictedBranches     57524362                       # Number of branches that fetch has predicted taken
system.switch_cpus.fetch.cycles             221795628                       # Number of cycles fetch has run and was not squashing or blocked
system.switch_cpus.fetch.squashCycles        11081698                       # Number of cycles fetch has spent squashing
system.switch_cpus.fetch.miscStallCycles          324                       # Number of cycles fetch has spent waiting on interrupts,or bad addresses, or out of MSHRs
system.switch_cpus.fetch.pendingTrapStallCycles         2505                       # Number of stall cycles due to pending traps
system.switch_cpus.fetch.cacheLines          81713829                       # Number of cache lines fetched
system.switch_cpus.fetch.icacheSquashes         11563                       # Number of outstanding Icache misses that were squashed
system.switch_cpus.fetch.nisnDist::samples    232318842                       # Number of instructions fetched each cycle (Total)
system.switch_cpus.fetch.nisnDist::mean      4.188113                       # Number of instructions fetched each cycle (Total)
system.switch_cpus.fetch.nisnDist::stdev     3.376970                       # Number of instructions fetched each cycle (Total)
system.switch_cpus.fetch.nisnDist::underflows            0      0.00%      0.00% # Number of instructions fetched each cycle (Total)
system.switch_cpus.fetch.nisnDist::0         67476163     29.04%     29.04% # Number of instructions fetched each cycle (Total)
system.switch_cpus.fetch.nisnDist::1         12384483      5.33%     34.38% # Number of instructions fetched each cycle (Total)
system.switch_cpus.fetch.nisnDist::2          9604817      4.13%     38.51% # Number of instructions fetched each cycle (Total)
system.switch_cpus.fetch.nisnDist::3         15030131      6.47%     44.98% # Number of instructions fetched each cycle (Total)
system.switch_cpus.fetch.nisnDist::4         10955600      4.72%     49.70% # Number of instructions fetched each cycle (Total)
system.switch_cpus.fetch.nisnDist::5         16077706      6.92%     56.62% # Number of instructions fetched each cycle (Total)
system.switch_cpus.fetch.nisnDist::6         11992974      5.16%     61.78% # Number of instructions fetched each cycle (Total)
system.switch_cpus.fetch.nisnDist::7         10251542      4.41%     66.19% # Number of instructions fetched each cycle (Total)
system.switch_cpus.fetch.nisnDist::8         78545426     33.81%    100.00% # Number of instructions fetched each cycle (Total)
system.switch_cpus.fetch.nisnDist::overflows            0      0.00%    100.00% # Number of instructions fetched each cycle (Total)
system.switch_cpus.fetch.nisnDist::min_value            0                       # Number of instructions fetched each cycle (Total)
system.switch_cpus.fetch.nisnDist::max_value            8                       # Number of instructions fetched each cycle (Total)
system.switch_cpus.fetch.nisnDist::total    232318842                       # Number of instructions fetched each cycle (Total)
system.switch_cpus.fetch.branchRate          0.426014                       # Number of branch fetches per cycle
system.switch_cpus.fetch.rate                2.306382                       # Number of inst fetches per cycle
system.switch_cpus.itb.rdAccesses                   0                       # TLB accesses on read requests
system.switch_cpus.itb.wrAccesses            81714200                       # TLB accesses on write requests
system.switch_cpus.itb.rdMisses                     0                       # TLB misses on read requests
system.switch_cpus.itb.wrMisses                   464                       # TLB misses on write requests
system.switch_cpus.itb.walker.power_state.pwrStateResidencyTicks::UNDEFINED 18651056097843                       # Cumulative time (in ticks) in various power states
system.switch_cpus.lsq0.forwLoads            12971281                       # Number of loads that had data forwarded from stores
system.switch_cpus.lsq0.squashedLoads        54846191                       # Number of loads squashed
system.switch_cpus.lsq0.ignoredResponses        65487                       # Number of memory responses ignored because the instruction is squashed
system.switch_cpus.lsq0.memOrderViolation        40761                       # Number of memory ordering violations
system.switch_cpus.lsq0.squashedStores       16121064                       # Number of stores squashed
system.switch_cpus.lsq0.rescheduledLoads        40064                       # Number of loads that were rescheduled
system.switch_cpus.lsq0.blockedByCache              9                       # Number of times an access to memory failed due to the cache being blocked
system.switch_cpus.power_state.pwrStateResidencyTicks::OFF  77411227284                       # Cumulative time (in ticks) in various power states
system.switch_cpus.rename.squashCycles        5214671                       # Number of cycles rename is squashing
system.switch_cpus.rename.idleCycles         33604851                       # Number of cycles rename is idle
system.switch_cpus.rename.blockCycles        43026449                       # Number of cycles rename is blocking
system.switch_cpus.rename.serializeStallCycles            5                       # count of cycles rename stalledfor serializing inst
system.switch_cpus.rename.runCycles         109831203                       # Number of cycles rename is running
system.switch_cpus.rename.unblockCycles      40641648                       # Number of cycles rename is unblocking
system.switch_cpus.rename.renamedInsts      850434287                       # Number of instructions processed by rename
system.switch_cpus.rename.ROBFullEvents        302917                       # Number of times rename has blocked due to ROB full
system.switch_cpus.rename.IQFullEvents       30919660                       # Number of times rename has blocked due to IQ full
system.switch_cpus.rename.LQFullEvents        2133599                       # Number of times rename has blocked due to LQ full
system.switch_cpus.rename.SQFullEvents        3397491                       # Number of times rename has blocked due to SQ full
system.switch_cpus.rename.fullRegistersEvents            9                       # Number of times there has been no free registers
system.switch_cpus.rename.renamedOperands   1068042559                       # Number of destination operands rename has renamed
system.switch_cpus.rename.lookups          2188506687                       # Number of register rename lookups that rename has made
system.switch_cpus.rename.intLookups       1366586284                       # Number of integer rename lookups
system.switch_cpus.rename.fpLookups           2572297                       # Number of floating rename lookups
system.switch_cpus.rename.committedMaps     585181296                       # Number of HB maps that are committed
system.switch_cpus.rename.undoneMaps        482861107                       # Number of HB maps that are undone due to squashing
system.switch_cpus.rename.serializing               1                       # count of serializing insts renamed
system.switch_cpus.rename.tempSerializing            1                       # count of temporary serializing insts renamed
system.switch_cpus.rename.skidInsts          95657040                       # count of insts added to the skid buffer
system.switch_cpus.rob.reads                951535184                       # The number of ROB reads
system.switch_cpus.rob.writes              1631151424                       # The number of ROB writes
system.switch_cpus.thread0.numInsts         250000000                       # Number of Instructions committed
system.switch_cpus.thread0.numOps           459848042                       # Number of Ops committed
system.switch_cpus.thread0.numMemRefs               0                       # Number of Memory References
system.voltage_domain.voltage                       1                       # Voltage in Volts

---------- End Simulation Statistics   ----------
