Command line:
./runscript_pride.sh wrf RFM1.BR2.4C 4 2017 --rh_defense --rh_mitigation=RFM --rh_rfm_per_trefi=1 --rh_rfm_blast_radius=2 --rh_rfm_maxacts_per_trefi=79
Global frequency set at 1000000000000 ticks per second
RFM details - rfm_act_threshold: 79, blast_radius: 2, delay_per_rfm: 175000 ps. sample_rate: 0.012500
RH Defense config: RFM, Bus Delay: 0, rfms_per_trefi: 1, rfm_act_threshold: 79, blast_radius: 2,rfm_delay_per_act: 45000 ps.
DRAM config: RowsPerBank: 65536, BanksPerRank: 32, RanksPerChannel: 1
warn: Sockets disabled, not accepting gdb connections
warn: CoherentXBar system.cpu0.mmucache.mmubus has no snooping ports attached!
warn: CoherentXBar system.cpu1.mmucache.mmubus has no snooping ports attached!
warn: CoherentXBar system.cpu2.mmucache.mmubus has no snooping ports attached!
warn: CoherentXBar system.cpu3.mmucache.mmubus has no snooping ports attached!
warn: Checkpoints for file descriptors currently do not work.
warn: Checkpoints for file descriptors currently do not work.
warn: Checkpoints for file descriptors currently do not work.
warn: Checkpoints for file descriptors currently do not work.
gem5 Simulator System.  http://gem5.org
gem5 is copyrighted software; use the --copyright option for details.

gem5 version 20.1.0.5
gem5 compiled Jul 12 2024 12:42:38
gem5 started Aug  1 2024 16:47:12
gem5 executing on a07dda8b130c, pid 249734
command line: /home/user/PrIDE/performance/gem5/build/X86/gem5.opt --outdir=/home/user/PrIDE/performance/gem5/stats/pride_multiprogram_16GBmem_250Mn.SPEC2017.C4/RFM1.BR2.4C/wrf /home/user/PrIDE/performance/gem5/configs/example/se_rq_spec_config_multicore.py --redirects /lib64=/home/utils/gcc-6.2.0/lib64 --benchmark=wrf --benchmark_stdout=/home/user/PrIDE/performance/gem5/stats/pride_multiprogram_16GBmem_250Mn.SPEC2017.C4/RFM1.BR2.4C/wrf/wrf.out --benchmark_stderr=/home/user/PrIDE/performance/gem5/stats/pride_multiprogram_16GBmem_250Mn.SPEC2017.C4/RFM1.BR2.4C/wrf/wrf.err --spec-version=2017 --rh_defense --rh_mitigation=RFM --rh_rfm_per_trefi=1 --rh_rfm_blast_radius=2 --rh_rfm_maxacts_per_trefi=79 --num-cpus=4 --mem-size=16GB --mem-type=DDR5_2400_32x4 --mem-ranks=1 --mem-channels=1 --checkpoint-dir=/home/user/PrIDE/performance/gem5/cpts-DDR5/multiprogram_16GBmem_25Bn.SPEC2017.C4/wrf-1-ref-x86 --checkpoint-restore=25000000000 --at-instruction --cpu-type DerivO3CPU --caches --l2cache --l1d_size=32kB --l1i_size=32kB --l2_size=256kB --l3_size=4MB --l1d_assoc=8 --l1i_assoc=8 --l2_assoc=16 --l3_assoc=16 --cpu-clock=3GHz --sys-clock=3GHz --maxinsts=250000000 --prog-interval=300Hz

info: Standard input is not a terminal, disabling listeners.
Benchmark- 0   wrf
Selected benchmark
--> wrf
CMD: ['/opt/spec2017/benchspec/CPU/521.wrf_r/run/run_base_refrate_gem5_se-m64.0000/wrf_r_base.gem5_se-m64']
CWD: /opt/spec2017/benchspec/CPU/521.wrf_r/run/run_base_refrate_gem5_se-m64.0000/
Process stdout file: /home/user/PrIDE/performance/gem5/stats/pride_multiprogram_16GBmem_250Mn.SPEC2017.C4/RFM1.BR2.4C/wrf/wrf.out_0
Process stderr file: /home/user/PrIDE/performance/gem5/stats/pride_multiprogram_16GBmem_250Mn.SPEC2017.C4/RFM1.BR2.4C/wrf/wrf.err_0
Benchmark- 1   wrf
Selected benchmark
--> wrf
CMD: ['/opt/spec2017/benchspec/CPU/521.wrf_r/run/run_base_refrate_gem5_se-m64.0000/wrf_r_base.gem5_se-m64']
CWD: /opt/spec2017/benchspec/CPU/521.wrf_r/run/run_base_refrate_gem5_se-m64.0000/
Process stdout file: /home/user/PrIDE/performance/gem5/stats/pride_multiprogram_16GBmem_250Mn.SPEC2017.C4/RFM1.BR2.4C/wrf/wrf.out_1
Process stderr file: /home/user/PrIDE/performance/gem5/stats/pride_multiprogram_16GBmem_250Mn.SPEC2017.C4/RFM1.BR2.4C/wrf/wrf.err_1
Benchmark- 2   wrf
Selected benchmark
--> wrf
CMD: ['/opt/spec2017/benchspec/CPU/521.wrf_r/run/run_base_refrate_gem5_se-m64.0000/wrf_r_base.gem5_se-m64']
CWD: /opt/spec2017/benchspec/CPU/521.wrf_r/run/run_base_refrate_gem5_se-m64.0000/
Process stdout file: /home/user/PrIDE/performance/gem5/stats/pride_multiprogram_16GBmem_250Mn.SPEC2017.C4/RFM1.BR2.4C/wrf/wrf.out_2
Process stderr file: /home/user/PrIDE/performance/gem5/stats/pride_multiprogram_16GBmem_250Mn.SPEC2017.C4/RFM1.BR2.4C/wrf/wrf.err_2
Benchmark- 3   wrf
Selected benchmark
--> wrf
CMD: ['/opt/spec2017/benchspec/CPU/521.wrf_r/run/run_base_refrate_gem5_se-m64.0000/wrf_r_base.gem5_se-m64']
CWD: /opt/spec2017/benchspec/CPU/521.wrf_r/run/run_base_refrate_gem5_se-m64.0000/
Process stdout file: /home/user/PrIDE/performance/gem5/stats/pride_multiprogram_16GBmem_250Mn.SPEC2017.C4/RFM1.BR2.4C/wrf/wrf.out_3
Process stderr file: /home/user/PrIDE/performance/gem5/stats/pride_multiprogram_16GBmem_250Mn.SPEC2017.C4/RFM1.BR2.4C/wrf/wrf.err_3
Workload-0: 
['/opt/spec2017/benchspec/CPU/521.wrf_r/run/run_base_refrate_gem5_se-m64.0000/wrf_r_base.gem5_se-m64']
Workload-1: 
['/opt/spec2017/benchspec/CPU/521.wrf_r/run/run_base_refrate_gem5_se-m64.0000/wrf_r_base.gem5_se-m64']
Workload-2: 
['/opt/spec2017/benchspec/CPU/521.wrf_r/run/run_base_refrate_gem5_se-m64.0000/wrf_r_base.gem5_se-m64']
Workload-3: 
['/opt/spec2017/benchspec/CPU/521.wrf_r/run/run_base_refrate_gem5_se-m64.0000/wrf_r_base.gem5_se-m64']
defense_enable:  True  detector:  MG  mitigation:  RFM  threshold:  800
mg_entries:  1700
rfm_maxacts_per_trefi:  79 rfm_per_trefi:  1 rfm_blast_radius:  2
Switch at curTick count:10000
warn: membus.master is deprecated. `master` is now called `mem_side_ports`
warn: No dot file generated. Please install pydot to generate the dot file and pdf.
info: Entering event queue @ 18146314377144.  Starting simulation...
info: Entering event queue @ 18146314387144.  Starting simulation...
warn: PowerState: Already in the requested power state, request ignored
Switched CPUS @ tick 18146314387144
switching cpus
**** REAL SIMULATION ****
info: Entering event queue @ 18146314387467.  Starting simulation...
warn: MOVNTDQ: Ignoring non-temporal hint, modeling as cacheable!
18149647710477: Event_285: system.switch_cpus3 progress event, total committed:27393044, progress insts committed: 27393044, IPC: 02.73657
18149647710477: Event_284: system.switch_cpus2 progress event, total committed:27386502, progress insts committed: 27386502, IPC: 02.73591
18149647710477: Event_283: system.switch_cpus1 progress event, total committed:27356997, progress insts committed: 27356997, IPC: 02.73296
18149647710477: Event_282: system.switch_cpus0 progress event, total committed:27383647, progress insts committed: 27383647, IPC: 02.73563
18152981043810: Event_282: system.switch_cpus0 progress event, total committed:59675679, progress insts committed: 32292032, IPC: 03.22597
18152981043810: Event_283: system.switch_cpus1 progress event, total committed:59601215, progress insts committed: 32244218, IPC: 003.2212
18152981043810: Event_284: system.switch_cpus2 progress event, total committed:59772565, progress insts committed: 32386063, IPC: 03.23537
18152981043810: Event_285: system.switch_cpus3 progress event, total committed:59807203, progress insts committed: 32414159, IPC: 03.23817
18156314377143: Event_285: system.switch_cpus3 progress event, total committed:91019061, progress insts committed: 31211858, IPC: 03.11806
18156314377143: Event_284: system.switch_cpus2 progress event, total committed:90928937, progress insts committed: 31156372, IPC: 03.11252
18156314377143: Event_283: system.switch_cpus1 progress event, total committed:90641041, progress insts committed: 31039826, IPC: 03.10088
18156314377143: Event_282: system.switch_cpus0 progress event, total committed:90835348, progress insts committed: 31159669, IPC: 03.11285
18159647710476: Event_282: system.switch_cpus0 progress event, total committed:123587884, progress insts committed: 32752536, IPC: 03.27198
18159647710476: Event_283: system.switch_cpus1 progress event, total committed:123297738, progress insts committed: 32656697, IPC: 003.2624
18159647710476: Event_284: system.switch_cpus2 progress event, total committed:123779838, progress insts committed: 32850901, IPC: 03.28181
18159647710476: Event_285: system.switch_cpus3 progress event, total committed:123948950, progress insts committed: 32929889, IPC: 003.2897
18162981043809: Event_285: system.switch_cpus3 progress event, total committed:155135086, progress insts committed: 31186136, IPC: 03.11549
18162981043809: Event_284: system.switch_cpus2 progress event, total committed:154742929, progress insts committed: 30963091, IPC: 03.09321
18162981043809: Event_283: system.switch_cpus1 progress event, total committed:154474239, progress insts committed: 31176501, IPC: 03.11453
18162981043809: Event_282: system.switch_cpus0 progress event, total committed:154631368, progress insts committed: 31043484, IPC: 03.10124
18166314377142: Event_282: system.switch_cpus0 progress event, total committed:187714170, progress insts committed: 33082802, IPC: 03.30497
18166314377142: Event_283: system.switch_cpus1 progress event, total committed:187477399, progress insts committed: 33003160, IPC: 03.29702
18166314377142: Event_284: system.switch_cpus2 progress event, total committed:188098529, progress insts committed: 33355600, IPC: 03.33222
18166314377142: Event_285: system.switch_cpus3 progress event, total committed:188492599, progress insts committed: 33357513, IPC: 03.33242
18169647710475: Event_285: system.switch_cpus3 progress event, total committed:220512621, progress insts committed: 32020022, IPC: 003.1988
18169647710475: Event_284: system.switch_cpus2 progress event, total committed:220178614, progress insts committed: 32080085, IPC: 003.2048
18169647710475: Event_283: system.switch_cpus1 progress event, total committed:219577474, progress insts committed: 32100075, IPC: 003.2068
18169647710475: Event_282: system.switch_cpus0 progress event, total committed:219681853, progress insts committed: 31967683, IPC: 03.19357
18172981043808: Event_282: system.switch_cpus0 progress event, total committed:251855852, progress insts committed: 32173999, IPC: 03.21418
18172981043808: Event_283: system.switch_cpus1 progress event, total committed:251552487, progress insts committed: 31975013, IPC: 003.1943
18172981043808: Event_284: system.switch_cpus2 progress event, total committed:252695531, progress insts committed: 32516917, IPC: 03.24844
18172981043808: Event_285: system.switch_cpus3 progress event, total committed:253538024, progress insts committed: 33025403, IPC: 03.29924
18176314377141: Event_285: system.switch_cpus3 progress event, total committed:285679220, progress insts committed: 32141196, IPC: 03.21091
18176314377141: Event_284: system.switch_cpus2 progress event, total committed:285086686, progress insts committed: 32391155, IPC: 03.23588
18176314377141: Event_283: system.switch_cpus1 progress event, total committed:284229691, progress insts committed: 32677204, IPC: 03.26445
18176314377141: Event_282: system.switch_cpus0 progress event, total committed:284617488, progress insts committed: 32761636, IPC: 03.27289
18179647710474: Event_282: system.switch_cpus0 progress event, total committed:316068797, progress insts committed: 31451309, IPC: 03.14199
18179647710474: Event_283: system.switch_cpus1 progress event, total committed:315489479, progress insts committed: 31259788, IPC: 03.12285
18179647710474: Event_284: system.switch_cpus2 progress event, total committed:317286306, progress insts committed: 32199620, IPC: 03.21674
18179647710474: Event_285: system.switch_cpus3 progress event, total committed:318408529, progress insts committed: 32729309, IPC: 03.26966
18182981043807: Event_285: system.switch_cpus3 progress event, total committed:350716635, progress insts committed: 32308106, IPC: 03.22758
18182981043807: Event_284: system.switch_cpus2 progress event, total committed:350407652, progress insts committed: 33121346, IPC: 03.30882
18182981043807: Event_283: system.switch_cpus1 progress event, total committed:348554502, progress insts committed: 33065023, IPC: 003.3032
18182981043807: Event_282: system.switch_cpus0 progress event, total committed:349041910, progress insts committed: 32973113, IPC: 03.29401
18186314377140: Event_282: system.switch_cpus0 progress event, total committed:380527617, progress insts committed: 31485707, IPC: 03.14542
18186314377140: Event_283: system.switch_cpus1 progress event, total committed:380282111, progress insts committed: 31727609, IPC: 03.16959
18186314377140: Event_284: system.switch_cpus2 progress event, total committed:381950443, progress insts committed: 31542791, IPC: 03.15112
18186314377140: Event_285: system.switch_cpus3 progress event, total committed:383403506, progress insts committed: 32686871, IPC: 03.26542
18189647710473: Event_285: system.switch_cpus3 progress event, total committed:416484507, progress insts committed: 33081001, IPC: 03.30479
18189647710473: Event_284: system.switch_cpus2 progress event, total committed:415172498, progress insts committed: 33222055, IPC: 03.31888
18189647710473: Event_283: system.switch_cpus1 progress event, total committed:413181635, progress insts committed: 32899524, IPC: 03.28666
18189647710473: Event_282: system.switch_cpus0 progress event, total committed:413546400, progress insts committed: 33018783, IPC: 03.29858
18192981043806: Event_282: system.switch_cpus0 progress event, total committed:430407889, progress insts committed: 16861489, IPC: 01.68446
18192981043806: Event_283: system.switch_cpus1 progress event, total committed:430351591, progress insts committed: 17169956, IPC: 01.71528
18192981043806: Event_284: system.switch_cpus2 progress event, total committed:430726691, progress insts committed: 15554193, IPC: 01.55386
18192981043806: Event_285: system.switch_cpus3 progress event, total committed:431022514, progress insts committed: 14538007, IPC: 01.45235
18196314377139: Event_285: system.switch_cpus3 progress event, total committed:441260162, progress insts committed: 10237648, IPC: 01.02274
18196314377139: Event_284: system.switch_cpus2 progress event, total committed:440274550, progress insts committed: 9547859, IPC: 0.953831
18196314377139: Event_283: system.switch_cpus1 progress event, total committed:439067581, progress insts committed: 8715990, IPC: 0.870727
18196314377139: Event_282: system.switch_cpus0 progress event, total committed:439243634, progress insts committed: 8835745, IPC: 0.882691
18199647710472: Event_282: system.switch_cpus0 progress event, total committed:454797753, progress insts committed: 15554119, IPC: 01.55386
18199647710472: Event_283: system.switch_cpus1 progress event, total committed:454779153, progress insts committed: 15711572, IPC: 01.56959
18199647710472: Event_284: system.switch_cpus2 progress event, total committed:454919681, progress insts committed: 14645131, IPC: 01.46305
18199647710472: Event_285: system.switch_cpus3 progress event, total committed:455064022, progress insts committed: 13803860, IPC: 01.37901
18202981043805: Event_285: system.switch_cpus3 progress event, total committed:456083504, progress insts committed: 1019482, IPC: 0.101846
18202981043805: Event_284: system.switch_cpus2 progress event, total committed:455941436, progress insts committed: 1021755, IPC: 0.102073
18202981043805: Event_283: system.switch_cpus1 progress event, total committed:455765572, progress insts committed: 986419, IPC: 0.0985433
18202981043805: Event_282: system.switch_cpus0 progress event, total committed:455815659, progress insts committed: 1017906, IPC: 0.101689
Exiting @ tick 18204110776890 because a thread reached the max instruction count
