
---------- Begin Simulation Statistics ----------
final_tick                               18203955754068                       # Number of ticks from beginning of simulation (restored from checkpoints and never reset)
host_inst_rate                                 162265                       # Simulator instruction rate (inst/s)
host_mem_usage                               17498828                       # Number of bytes of host memory used
host_op_rate                                   296259                       # Simulator op (including micro ops) rate (op/s)
host_seconds                                  6161.19                       # Real time elapsed on the host
host_tick_rate                                9355556                       # Simulator tick rate (ticks/s)
sim_freq                                 1000000000000                       # Frequency of simulated ticks
sim_insts                                   999747627                       # Number of instructions simulated
sim_ops                                    1825305880                       # Number of ops (including micro ops) simulated
sim_seconds                                  0.057641                       # Number of seconds simulated
sim_ticks                                 57641382585                       # Number of ticks simulated
system.cpu0.Branches                                3                       # Number of branches fetched
system.cpu0.committedInsts                         12                       # Number of instructions committed
system.cpu0.committedOps                           24                       # Number of ops (including micro ops) committed
system.cpu0.idle_fraction                           0                       # Percentage of idle cycles
system.cpu0.l2bus.snoop_filter.hit_multi_requests          245                       # Number of requests hitting in the snoop filter with multiple (>1) holders of the requested data.
system.cpu0.l2bus.snoop_filter.hit_multi_snoops            0                       # Number of snoops hitting in the snoop filter with multiple (>1) holders of the requested data.
system.cpu0.l2bus.snoop_filter.hit_single_requests      1779237                       # Number of requests hitting in the snoop filter with a single holder of the requested data.
system.cpu0.l2bus.snoop_filter.hit_single_snoops        24506                       # Number of snoops hitting in the snoop filter with a single holder of the requested data.
system.cpu0.l2bus.snoop_filter.tot_requests      3447223                       # Total number of requests made to the snoop filter.
system.cpu0.l2bus.snoop_filter.tot_snoops        24506                       # Total number of snoops made to the snoop filter.
system.cpu0.mmucache.mmubus.snoop_filter.hit_multi_requests            0                       # Number of requests hitting in the snoop filter with multiple (>1) holders of the requested data.
system.cpu0.mmucache.mmubus.snoop_filter.hit_multi_snoops            0                       # Number of snoops hitting in the snoop filter with multiple (>1) holders of the requested data.
system.cpu0.mmucache.mmubus.snoop_filter.hit_single_requests            0                       # Number of requests hitting in the snoop filter with a single holder of the requested data.
system.cpu0.mmucache.mmubus.snoop_filter.hit_single_snoops            0                       # Number of snoops hitting in the snoop filter with a single holder of the requested data.
system.cpu0.mmucache.mmubus.snoop_filter.tot_requests            0                       # Total number of requests made to the snoop filter.
system.cpu0.mmucache.mmubus.snoop_filter.tot_snoops            0                       # Total number of snoops made to the snoop filter.
system.cpu0.not_idle_fraction                       1                       # Percentage of non-idle cycles
system.cpu0.numCycles                              30                       # number of cpu cycles simulated
system.cpu0.numWorkItemsCompleted                   0                       # number of work items this cpu completed
system.cpu0.numWorkItemsStarted                     0                       # number of work items this cpu started
system.cpu0.num_busy_cycles                        30                       # Number of busy cycles
system.cpu0.num_cc_register_reads                  20                       # number of times the CC registers were read
system.cpu0.num_cc_register_writes                  6                       # number of times the CC registers were written
system.cpu0.num_conditional_control_insts            3                       # number of instructions that are conditional controls
system.cpu0.num_fp_alu_accesses                    14                       # Number of float alu accesses
system.cpu0.num_fp_insts                           14                       # number of float instructions
system.cpu0.num_fp_register_reads                  18                       # number of times the floating registers were read
system.cpu0.num_fp_register_writes                 12                       # number of times the floating registers were written
system.cpu0.num_func_calls                          0                       # number of times a function call or return occured
system.cpu0.num_idle_cycles                         0                       # Number of idle cycles
system.cpu0.num_int_alu_accesses                   12                       # Number of integer alu accesses
system.cpu0.num_int_insts                          12                       # number of integer instructions
system.cpu0.num_int_register_reads                 20                       # number of times the integer registers were read
system.cpu0.num_int_register_writes                 7                       # number of times the integer registers were written
system.cpu0.num_load_insts                          2                       # Number of load instructions
system.cpu0.num_mem_refs                            2                       # number of memory refs
system.cpu0.num_store_insts                         0                       # Number of store instructions
system.cpu0.num_vec_alu_accesses                    0                       # Number of vector alu accesses
system.cpu0.num_vec_insts                           0                       # number of vector instructions
system.cpu0.num_vec_register_reads                  0                       # number of times the vector registers were read
system.cpu0.num_vec_register_writes                 0                       # number of times the vector registers were written
system.cpu0.op_class::No_OpClass                    0      0.00%      0.00% # Class of executed instruction
system.cpu0.op_class::IntAlu                       14     58.33%     58.33% # Class of executed instruction
system.cpu0.op_class::IntMult                       0      0.00%     58.33% # Class of executed instruction
system.cpu0.op_class::IntDiv                        0      0.00%     58.33% # Class of executed instruction
system.cpu0.op_class::FloatAdd                      4     16.67%     75.00% # Class of executed instruction
system.cpu0.op_class::FloatCmp                      0      0.00%     75.00% # Class of executed instruction
system.cpu0.op_class::FloatCvt                      0      0.00%     75.00% # Class of executed instruction
system.cpu0.op_class::FloatMult                     0      0.00%     75.00% # Class of executed instruction
system.cpu0.op_class::FloatMultAcc                  0      0.00%     75.00% # Class of executed instruction
system.cpu0.op_class::FloatDiv                      0      0.00%     75.00% # Class of executed instruction
system.cpu0.op_class::FloatMisc                     0      0.00%     75.00% # Class of executed instruction
system.cpu0.op_class::FloatSqrt                     0      0.00%     75.00% # Class of executed instruction
system.cpu0.op_class::SimdAdd                       0      0.00%     75.00% # Class of executed instruction
system.cpu0.op_class::SimdAddAcc                    0      0.00%     75.00% # Class of executed instruction
system.cpu0.op_class::SimdAlu                       0      0.00%     75.00% # Class of executed instruction
system.cpu0.op_class::SimdCmp                       0      0.00%     75.00% # Class of executed instruction
system.cpu0.op_class::SimdCvt                       0      0.00%     75.00% # Class of executed instruction
system.cpu0.op_class::SimdMisc                      0      0.00%     75.00% # Class of executed instruction
system.cpu0.op_class::SimdMult                      0      0.00%     75.00% # Class of executed instruction
system.cpu0.op_class::SimdMultAcc                   0      0.00%     75.00% # Class of executed instruction
system.cpu0.op_class::SimdShift                     0      0.00%     75.00% # Class of executed instruction
system.cpu0.op_class::SimdShiftAcc                  0      0.00%     75.00% # Class of executed instruction
system.cpu0.op_class::SimdDiv                       0      0.00%     75.00% # Class of executed instruction
system.cpu0.op_class::SimdSqrt                      0      0.00%     75.00% # Class of executed instruction
system.cpu0.op_class::SimdFloatAdd                  1      4.17%     79.17% # Class of executed instruction
system.cpu0.op_class::SimdFloatAlu                  0      0.00%     79.17% # Class of executed instruction
system.cpu0.op_class::SimdFloatCmp                  0      0.00%     79.17% # Class of executed instruction
system.cpu0.op_class::SimdFloatCvt                  2      8.33%     87.50% # Class of executed instruction
system.cpu0.op_class::SimdFloatDiv                  0      0.00%     87.50% # Class of executed instruction
system.cpu0.op_class::SimdFloatMisc                 0      0.00%     87.50% # Class of executed instruction
system.cpu0.op_class::SimdFloatMult                 1      4.17%     91.67% # Class of executed instruction
system.cpu0.op_class::SimdFloatMultAcc              0      0.00%     91.67% # Class of executed instruction
system.cpu0.op_class::SimdFloatSqrt                 0      0.00%     91.67% # Class of executed instruction
system.cpu0.op_class::SimdReduceAdd                 0      0.00%     91.67% # Class of executed instruction
system.cpu0.op_class::SimdReduceAlu                 0      0.00%     91.67% # Class of executed instruction
system.cpu0.op_class::SimdReduceCmp                 0      0.00%     91.67% # Class of executed instruction
system.cpu0.op_class::SimdFloatReduceAdd            0      0.00%     91.67% # Class of executed instruction
system.cpu0.op_class::SimdFloatReduceCmp            0      0.00%     91.67% # Class of executed instruction
system.cpu0.op_class::SimdAes                       0      0.00%     91.67% # Class of executed instruction
system.cpu0.op_class::SimdAesMix                    0      0.00%     91.67% # Class of executed instruction
system.cpu0.op_class::SimdSha1Hash                  0      0.00%     91.67% # Class of executed instruction
system.cpu0.op_class::SimdSha1Hash2                 0      0.00%     91.67% # Class of executed instruction
system.cpu0.op_class::SimdSha256Hash                0      0.00%     91.67% # Class of executed instruction
system.cpu0.op_class::SimdSha256Hash2               0      0.00%     91.67% # Class of executed instruction
system.cpu0.op_class::SimdShaSigma2                 0      0.00%     91.67% # Class of executed instruction
system.cpu0.op_class::SimdShaSigma3                 0      0.00%     91.67% # Class of executed instruction
system.cpu0.op_class::SimdPredAlu                   0      0.00%     91.67% # Class of executed instruction
system.cpu0.op_class::MemRead                       0      0.00%     91.67% # Class of executed instruction
system.cpu0.op_class::MemWrite                      0      0.00%     91.67% # Class of executed instruction
system.cpu0.op_class::FloatMemRead                  2      8.33%    100.00% # Class of executed instruction
system.cpu0.op_class::FloatMemWrite                 0      0.00%    100.00% # Class of executed instruction
system.cpu0.op_class::IprAccess                     0      0.00%    100.00% # Class of executed instruction
system.cpu0.op_class::InstPrefetch                  0      0.00%    100.00% # Class of executed instruction
system.cpu0.op_class::total                        24                       # Class of executed instruction
system.cpu0.workload.numSyscalls                    0                       # Number of system calls
system.cpu1.Branches                                3                       # Number of branches fetched
system.cpu1.committedInsts                         12                       # Number of instructions committed
system.cpu1.committedOps                           24                       # Number of ops (including micro ops) committed
system.cpu1.idle_fraction                           0                       # Percentage of idle cycles
system.cpu1.l2bus.snoop_filter.hit_multi_requests          433                       # Number of requests hitting in the snoop filter with multiple (>1) holders of the requested data.
system.cpu1.l2bus.snoop_filter.hit_multi_snoops            0                       # Number of snoops hitting in the snoop filter with multiple (>1) holders of the requested data.
system.cpu1.l2bus.snoop_filter.hit_single_requests      1778429                       # Number of requests hitting in the snoop filter with a single holder of the requested data.
system.cpu1.l2bus.snoop_filter.hit_single_snoops        24618                       # Number of snoops hitting in the snoop filter with a single holder of the requested data.
system.cpu1.l2bus.snoop_filter.tot_requests      3445524                       # Total number of requests made to the snoop filter.
system.cpu1.l2bus.snoop_filter.tot_snoops        24618                       # Total number of snoops made to the snoop filter.
system.cpu1.mmucache.mmubus.snoop_filter.hit_multi_requests            0                       # Number of requests hitting in the snoop filter with multiple (>1) holders of the requested data.
system.cpu1.mmucache.mmubus.snoop_filter.hit_multi_snoops            0                       # Number of snoops hitting in the snoop filter with multiple (>1) holders of the requested data.
system.cpu1.mmucache.mmubus.snoop_filter.hit_single_requests            0                       # Number of requests hitting in the snoop filter with a single holder of the requested data.
system.cpu1.mmucache.mmubus.snoop_filter.hit_single_snoops            0                       # Number of snoops hitting in the snoop filter with a single holder of the requested data.
system.cpu1.mmucache.mmubus.snoop_filter.tot_requests            0                       # Total number of requests made to the snoop filter.
system.cpu1.mmucache.mmubus.snoop_filter.tot_snoops            0                       # Total number of snoops made to the snoop filter.
system.cpu1.not_idle_fraction                       1                       # Percentage of non-idle cycles
system.cpu1.numCycles                              30                       # number of cpu cycles simulated
system.cpu1.numWorkItemsCompleted                   0                       # number of work items this cpu completed
system.cpu1.numWorkItemsStarted                     0                       # number of work items this cpu started
system.cpu1.num_busy_cycles                        30                       # Number of busy cycles
system.cpu1.num_cc_register_reads                  20                       # number of times the CC registers were read
system.cpu1.num_cc_register_writes                  6                       # number of times the CC registers were written
system.cpu1.num_conditional_control_insts            3                       # number of instructions that are conditional controls
system.cpu1.num_fp_alu_accesses                    14                       # Number of float alu accesses
system.cpu1.num_fp_insts                           14                       # number of float instructions
system.cpu1.num_fp_register_reads                  18                       # number of times the floating registers were read
system.cpu1.num_fp_register_writes                 12                       # number of times the floating registers were written
system.cpu1.num_func_calls                          0                       # number of times a function call or return occured
system.cpu1.num_idle_cycles                         0                       # Number of idle cycles
system.cpu1.num_int_alu_accesses                   12                       # Number of integer alu accesses
system.cpu1.num_int_insts                          12                       # number of integer instructions
system.cpu1.num_int_register_reads                 20                       # number of times the integer registers were read
system.cpu1.num_int_register_writes                 7                       # number of times the integer registers were written
system.cpu1.num_load_insts                          2                       # Number of load instructions
system.cpu1.num_mem_refs                            2                       # number of memory refs
system.cpu1.num_store_insts                         0                       # Number of store instructions
system.cpu1.num_vec_alu_accesses                    0                       # Number of vector alu accesses
system.cpu1.num_vec_insts                           0                       # number of vector instructions
system.cpu1.num_vec_register_reads                  0                       # number of times the vector registers were read
system.cpu1.num_vec_register_writes                 0                       # number of times the vector registers were written
system.cpu1.op_class::No_OpClass                    0      0.00%      0.00% # Class of executed instruction
system.cpu1.op_class::IntAlu                       14     58.33%     58.33% # Class of executed instruction
system.cpu1.op_class::IntMult                       0      0.00%     58.33% # Class of executed instruction
system.cpu1.op_class::IntDiv                        0      0.00%     58.33% # Class of executed instruction
system.cpu1.op_class::FloatAdd                      4     16.67%     75.00% # Class of executed instruction
system.cpu1.op_class::FloatCmp                      0      0.00%     75.00% # Class of executed instruction
system.cpu1.op_class::FloatCvt                      0      0.00%     75.00% # Class of executed instruction
system.cpu1.op_class::FloatMult                     0      0.00%     75.00% # Class of executed instruction
system.cpu1.op_class::FloatMultAcc                  0      0.00%     75.00% # Class of executed instruction
system.cpu1.op_class::FloatDiv                      0      0.00%     75.00% # Class of executed instruction
system.cpu1.op_class::FloatMisc                     0      0.00%     75.00% # Class of executed instruction
system.cpu1.op_class::FloatSqrt                     0      0.00%     75.00% # Class of executed instruction
system.cpu1.op_class::SimdAdd                       0      0.00%     75.00% # Class of executed instruction
system.cpu1.op_class::SimdAddAcc                    0      0.00%     75.00% # Class of executed instruction
system.cpu1.op_class::SimdAlu                       0      0.00%     75.00% # Class of executed instruction
system.cpu1.op_class::SimdCmp                       0      0.00%     75.00% # Class of executed instruction
system.cpu1.op_class::SimdCvt                       0      0.00%     75.00% # Class of executed instruction
system.cpu1.op_class::SimdMisc                      0      0.00%     75.00% # Class of executed instruction
system.cpu1.op_class::SimdMult                      0      0.00%     75.00% # Class of executed instruction
system.cpu1.op_class::SimdMultAcc                   0      0.00%     75.00% # Class of executed instruction
system.cpu1.op_class::SimdShift                     0      0.00%     75.00% # Class of executed instruction
system.cpu1.op_class::SimdShiftAcc                  0      0.00%     75.00% # Class of executed instruction
system.cpu1.op_class::SimdDiv                       0      0.00%     75.00% # Class of executed instruction
system.cpu1.op_class::SimdSqrt                      0      0.00%     75.00% # Class of executed instruction
system.cpu1.op_class::SimdFloatAdd                  1      4.17%     79.17% # Class of executed instruction
system.cpu1.op_class::SimdFloatAlu                  0      0.00%     79.17% # Class of executed instruction
system.cpu1.op_class::SimdFloatCmp                  0      0.00%     79.17% # Class of executed instruction
system.cpu1.op_class::SimdFloatCvt                  2      8.33%     87.50% # Class of executed instruction
system.cpu1.op_class::SimdFloatDiv                  0      0.00%     87.50% # Class of executed instruction
system.cpu1.op_class::SimdFloatMisc                 0      0.00%     87.50% # Class of executed instruction
system.cpu1.op_class::SimdFloatMult                 1      4.17%     91.67% # Class of executed instruction
system.cpu1.op_class::SimdFloatMultAcc              0      0.00%     91.67% # Class of executed instruction
system.cpu1.op_class::SimdFloatSqrt                 0      0.00%     91.67% # Class of executed instruction
system.cpu1.op_class::SimdReduceAdd                 0      0.00%     91.67% # Class of executed instruction
system.cpu1.op_class::SimdReduceAlu                 0      0.00%     91.67% # Class of executed instruction
system.cpu1.op_class::SimdReduceCmp                 0      0.00%     91.67% # Class of executed instruction
system.cpu1.op_class::SimdFloatReduceAdd            0      0.00%     91.67% # Class of executed instruction
system.cpu1.op_class::SimdFloatReduceCmp            0      0.00%     91.67% # Class of executed instruction
system.cpu1.op_class::SimdAes                       0      0.00%     91.67% # Class of executed instruction
system.cpu1.op_class::SimdAesMix                    0      0.00%     91.67% # Class of executed instruction
system.cpu1.op_class::SimdSha1Hash                  0      0.00%     91.67% # Class of executed instruction
system.cpu1.op_class::SimdSha1Hash2                 0      0.00%     91.67% # Class of executed instruction
system.cpu1.op_class::SimdSha256Hash                0      0.00%     91.67% # Class of executed instruction
system.cpu1.op_class::SimdSha256Hash2               0      0.00%     91.67% # Class of executed instruction
system.cpu1.op_class::SimdShaSigma2                 0      0.00%     91.67% # Class of executed instruction
system.cpu1.op_class::SimdShaSigma3                 0      0.00%     91.67% # Class of executed instruction
system.cpu1.op_class::SimdPredAlu                   0      0.00%     91.67% # Class of executed instruction
system.cpu1.op_class::MemRead                       0      0.00%     91.67% # Class of executed instruction
system.cpu1.op_class::MemWrite                      0      0.00%     91.67% # Class of executed instruction
system.cpu1.op_class::FloatMemRead                  2      8.33%    100.00% # Class of executed instruction
system.cpu1.op_class::FloatMemWrite                 0      0.00%    100.00% # Class of executed instruction
system.cpu1.op_class::IprAccess                     0      0.00%    100.00% # Class of executed instruction
system.cpu1.op_class::InstPrefetch                  0      0.00%    100.00% # Class of executed instruction
system.cpu1.op_class::total                        24                       # Class of executed instruction
system.cpu1.workload.numSyscalls                    0                       # Number of system calls
system.cpu2.Branches                                3                       # Number of branches fetched
system.cpu2.committedInsts                         12                       # Number of instructions committed
system.cpu2.committedOps                           24                       # Number of ops (including micro ops) committed
system.cpu2.idle_fraction                           0                       # Percentage of idle cycles
system.cpu2.l2bus.snoop_filter.hit_multi_requests          294                       # Number of requests hitting in the snoop filter with multiple (>1) holders of the requested data.
system.cpu2.l2bus.snoop_filter.hit_multi_snoops            0                       # Number of snoops hitting in the snoop filter with multiple (>1) holders of the requested data.
system.cpu2.l2bus.snoop_filter.hit_single_requests      1788388                       # Number of requests hitting in the snoop filter with a single holder of the requested data.
system.cpu2.l2bus.snoop_filter.hit_single_snoops        22169                       # Number of snoops hitting in the snoop filter with a single holder of the requested data.
system.cpu2.l2bus.snoop_filter.tot_requests      3465268                       # Total number of requests made to the snoop filter.
system.cpu2.l2bus.snoop_filter.tot_snoops        22169                       # Total number of snoops made to the snoop filter.
system.cpu2.mmucache.mmubus.snoop_filter.hit_multi_requests            0                       # Number of requests hitting in the snoop filter with multiple (>1) holders of the requested data.
system.cpu2.mmucache.mmubus.snoop_filter.hit_multi_snoops            0                       # Number of snoops hitting in the snoop filter with multiple (>1) holders of the requested data.
system.cpu2.mmucache.mmubus.snoop_filter.hit_single_requests            0                       # Number of requests hitting in the snoop filter with a single holder of the requested data.
system.cpu2.mmucache.mmubus.snoop_filter.hit_single_snoops            0                       # Number of snoops hitting in the snoop filter with a single holder of the requested data.
system.cpu2.mmucache.mmubus.snoop_filter.tot_requests            0                       # Total number of requests made to the snoop filter.
system.cpu2.mmucache.mmubus.snoop_filter.tot_snoops            0                       # Total number of snoops made to the snoop filter.
system.cpu2.not_idle_fraction                       1                       # Percentage of non-idle cycles
system.cpu2.numCycles                              30                       # number of cpu cycles simulated
system.cpu2.numWorkItemsCompleted                   0                       # number of work items this cpu completed
system.cpu2.numWorkItemsStarted                     0                       # number of work items this cpu started
system.cpu2.num_busy_cycles                        30                       # Number of busy cycles
system.cpu2.num_cc_register_reads                  20                       # number of times the CC registers were read
system.cpu2.num_cc_register_writes                  6                       # number of times the CC registers were written
system.cpu2.num_conditional_control_insts            3                       # number of instructions that are conditional controls
system.cpu2.num_fp_alu_accesses                    14                       # Number of float alu accesses
system.cpu2.num_fp_insts                           14                       # number of float instructions
system.cpu2.num_fp_register_reads                  18                       # number of times the floating registers were read
system.cpu2.num_fp_register_writes                 12                       # number of times the floating registers were written
system.cpu2.num_func_calls                          0                       # number of times a function call or return occured
system.cpu2.num_idle_cycles                         0                       # Number of idle cycles
system.cpu2.num_int_alu_accesses                   12                       # Number of integer alu accesses
system.cpu2.num_int_insts                          12                       # number of integer instructions
system.cpu2.num_int_register_reads                 20                       # number of times the integer registers were read
system.cpu2.num_int_register_writes                 7                       # number of times the integer registers were written
system.cpu2.num_load_insts                          2                       # Number of load instructions
system.cpu2.num_mem_refs                            2                       # number of memory refs
system.cpu2.num_store_insts                         0                       # Number of store instructions
system.cpu2.num_vec_alu_accesses                    0                       # Number of vector alu accesses
system.cpu2.num_vec_insts                           0                       # number of vector instructions
system.cpu2.num_vec_register_reads                  0                       # number of times the vector registers were read
system.cpu2.num_vec_register_writes                 0                       # number of times the vector registers were written
system.cpu2.op_class::No_OpClass                    0      0.00%      0.00% # Class of executed instruction
system.cpu2.op_class::IntAlu                       14     58.33%     58.33% # Class of executed instruction
system.cpu2.op_class::IntMult                       0      0.00%     58.33% # Class of executed instruction
system.cpu2.op_class::IntDiv                        0      0.00%     58.33% # Class of executed instruction
system.cpu2.op_class::FloatAdd                      4     16.67%     75.00% # Class of executed instruction
system.cpu2.op_class::FloatCmp                      0      0.00%     75.00% # Class of executed instruction
system.cpu2.op_class::FloatCvt                      0      0.00%     75.00% # Class of executed instruction
system.cpu2.op_class::FloatMult                     0      0.00%     75.00% # Class of executed instruction
system.cpu2.op_class::FloatMultAcc                  0      0.00%     75.00% # Class of executed instruction
system.cpu2.op_class::FloatDiv                      0      0.00%     75.00% # Class of executed instruction
system.cpu2.op_class::FloatMisc                     0      0.00%     75.00% # Class of executed instruction
system.cpu2.op_class::FloatSqrt                     0      0.00%     75.00% # Class of executed instruction
system.cpu2.op_class::SimdAdd                       0      0.00%     75.00% # Class of executed instruction
system.cpu2.op_class::SimdAddAcc                    0      0.00%     75.00% # Class of executed instruction
system.cpu2.op_class::SimdAlu                       0      0.00%     75.00% # Class of executed instruction
system.cpu2.op_class::SimdCmp                       0      0.00%     75.00% # Class of executed instruction
system.cpu2.op_class::SimdCvt                       0      0.00%     75.00% # Class of executed instruction
system.cpu2.op_class::SimdMisc                      0      0.00%     75.00% # Class of executed instruction
system.cpu2.op_class::SimdMult                      0      0.00%     75.00% # Class of executed instruction
system.cpu2.op_class::SimdMultAcc                   0      0.00%     75.00% # Class of executed instruction
system.cpu2.op_class::SimdShift                     0      0.00%     75.00% # Class of executed instruction
system.cpu2.op_class::SimdShiftAcc                  0      0.00%     75.00% # Class of executed instruction
system.cpu2.op_class::SimdDiv                       0      0.00%     75.00% # Class of executed instruction
system.cpu2.op_class::SimdSqrt                      0      0.00%     75.00% # Class of executed instruction
system.cpu2.op_class::SimdFloatAdd                  1      4.17%     79.17% # Class of executed instruction
system.cpu2.op_class::SimdFloatAlu                  0      0.00%     79.17% # Class of executed instruction
system.cpu2.op_class::SimdFloatCmp                  0      0.00%     79.17% # Class of executed instruction
system.cpu2.op_class::SimdFloatCvt                  2      8.33%     87.50% # Class of executed instruction
system.cpu2.op_class::SimdFloatDiv                  0      0.00%     87.50% # Class of executed instruction
system.cpu2.op_class::SimdFloatMisc                 0      0.00%     87.50% # Class of executed instruction
system.cpu2.op_class::SimdFloatMult                 1      4.17%     91.67% # Class of executed instruction
system.cpu2.op_class::SimdFloatMultAcc              0      0.00%     91.67% # Class of executed instruction
system.cpu2.op_class::SimdFloatSqrt                 0      0.00%     91.67% # Class of executed instruction
system.cpu2.op_class::SimdReduceAdd                 0      0.00%     91.67% # Class of executed instruction
system.cpu2.op_class::SimdReduceAlu                 0      0.00%     91.67% # Class of executed instruction
system.cpu2.op_class::SimdReduceCmp                 0      0.00%     91.67% # Class of executed instruction
system.cpu2.op_class::SimdFloatReduceAdd            0      0.00%     91.67% # Class of executed instruction
system.cpu2.op_class::SimdFloatReduceCmp            0      0.00%     91.67% # Class of executed instruction
system.cpu2.op_class::SimdAes                       0      0.00%     91.67% # Class of executed instruction
system.cpu2.op_class::SimdAesMix                    0      0.00%     91.67% # Class of executed instruction
system.cpu2.op_class::SimdSha1Hash                  0      0.00%     91.67% # Class of executed instruction
system.cpu2.op_class::SimdSha1Hash2                 0      0.00%     91.67% # Class of executed instruction
system.cpu2.op_class::SimdSha256Hash                0      0.00%     91.67% # Class of executed instruction
system.cpu2.op_class::SimdSha256Hash2               0      0.00%     91.67% # Class of executed instruction
system.cpu2.op_class::SimdShaSigma2                 0      0.00%     91.67% # Class of executed instruction
system.cpu2.op_class::SimdShaSigma3                 0      0.00%     91.67% # Class of executed instruction
system.cpu2.op_class::SimdPredAlu                   0      0.00%     91.67% # Class of executed instruction
system.cpu2.op_class::MemRead                       0      0.00%     91.67% # Class of executed instruction
system.cpu2.op_class::MemWrite                      0      0.00%     91.67% # Class of executed instruction
system.cpu2.op_class::FloatMemRead                  2      8.33%    100.00% # Class of executed instruction
system.cpu2.op_class::FloatMemWrite                 0      0.00%    100.00% # Class of executed instruction
system.cpu2.op_class::IprAccess                     0      0.00%    100.00% # Class of executed instruction
system.cpu2.op_class::InstPrefetch                  0      0.00%    100.00% # Class of executed instruction
system.cpu2.op_class::total                        24                       # Class of executed instruction
system.cpu2.workload.numSyscalls                    0                       # Number of system calls
system.cpu3.Branches                                3                       # Number of branches fetched
system.cpu3.committedInsts                         12                       # Number of instructions committed
system.cpu3.committedOps                           24                       # Number of ops (including micro ops) committed
system.cpu3.idle_fraction                           0                       # Percentage of idle cycles
system.cpu3.l2bus.snoop_filter.hit_multi_requests          432                       # Number of requests hitting in the snoop filter with multiple (>1) holders of the requested data.
system.cpu3.l2bus.snoop_filter.hit_multi_snoops            0                       # Number of snoops hitting in the snoop filter with multiple (>1) holders of the requested data.
system.cpu3.l2bus.snoop_filter.hit_single_requests      1789387                       # Number of requests hitting in the snoop filter with a single holder of the requested data.
system.cpu3.l2bus.snoop_filter.hit_single_snoops        21940                       # Number of snoops hitting in the snoop filter with a single holder of the requested data.
system.cpu3.l2bus.snoop_filter.tot_requests      3467120                       # Total number of requests made to the snoop filter.
system.cpu3.l2bus.snoop_filter.tot_snoops        21940                       # Total number of snoops made to the snoop filter.
system.cpu3.mmucache.mmubus.snoop_filter.hit_multi_requests            0                       # Number of requests hitting in the snoop filter with multiple (>1) holders of the requested data.
system.cpu3.mmucache.mmubus.snoop_filter.hit_multi_snoops            0                       # Number of snoops hitting in the snoop filter with multiple (>1) holders of the requested data.
system.cpu3.mmucache.mmubus.snoop_filter.hit_single_requests            0                       # Number of requests hitting in the snoop filter with a single holder of the requested data.
system.cpu3.mmucache.mmubus.snoop_filter.hit_single_snoops            0                       # Number of snoops hitting in the snoop filter with a single holder of the requested data.
system.cpu3.mmucache.mmubus.snoop_filter.tot_requests            0                       # Total number of requests made to the snoop filter.
system.cpu3.mmucache.mmubus.snoop_filter.tot_snoops            0                       # Total number of snoops made to the snoop filter.
system.cpu3.not_idle_fraction                       1                       # Percentage of non-idle cycles
system.cpu3.numCycles                              30                       # number of cpu cycles simulated
system.cpu3.numWorkItemsCompleted                   0                       # number of work items this cpu completed
system.cpu3.numWorkItemsStarted                     0                       # number of work items this cpu started
system.cpu3.num_busy_cycles                        30                       # Number of busy cycles
system.cpu3.num_cc_register_reads                  20                       # number of times the CC registers were read
system.cpu3.num_cc_register_writes                  6                       # number of times the CC registers were written
system.cpu3.num_conditional_control_insts            3                       # number of instructions that are conditional controls
system.cpu3.num_fp_alu_accesses                    14                       # Number of float alu accesses
system.cpu3.num_fp_insts                           14                       # number of float instructions
system.cpu3.num_fp_register_reads                  18                       # number of times the floating registers were read
system.cpu3.num_fp_register_writes                 12                       # number of times the floating registers were written
system.cpu3.num_func_calls                          0                       # number of times a function call or return occured
system.cpu3.num_idle_cycles                         0                       # Number of idle cycles
system.cpu3.num_int_alu_accesses                   12                       # Number of integer alu accesses
system.cpu3.num_int_insts                          12                       # number of integer instructions
system.cpu3.num_int_register_reads                 20                       # number of times the integer registers were read
system.cpu3.num_int_register_writes                 7                       # number of times the integer registers were written
system.cpu3.num_load_insts                          2                       # Number of load instructions
system.cpu3.num_mem_refs                            2                       # number of memory refs
system.cpu3.num_store_insts                         0                       # Number of store instructions
system.cpu3.num_vec_alu_accesses                    0                       # Number of vector alu accesses
system.cpu3.num_vec_insts                           0                       # number of vector instructions
system.cpu3.num_vec_register_reads                  0                       # number of times the vector registers were read
system.cpu3.num_vec_register_writes                 0                       # number of times the vector registers were written
system.cpu3.op_class::No_OpClass                    0      0.00%      0.00% # Class of executed instruction
system.cpu3.op_class::IntAlu                       14     58.33%     58.33% # Class of executed instruction
system.cpu3.op_class::IntMult                       0      0.00%     58.33% # Class of executed instruction
system.cpu3.op_class::IntDiv                        0      0.00%     58.33% # Class of executed instruction
system.cpu3.op_class::FloatAdd                      4     16.67%     75.00% # Class of executed instruction
system.cpu3.op_class::FloatCmp                      0      0.00%     75.00% # Class of executed instruction
system.cpu3.op_class::FloatCvt                      0      0.00%     75.00% # Class of executed instruction
system.cpu3.op_class::FloatMult                     0      0.00%     75.00% # Class of executed instruction
system.cpu3.op_class::FloatMultAcc                  0      0.00%     75.00% # Class of executed instruction
system.cpu3.op_class::FloatDiv                      0      0.00%     75.00% # Class of executed instruction
system.cpu3.op_class::FloatMisc                     0      0.00%     75.00% # Class of executed instruction
system.cpu3.op_class::FloatSqrt                     0      0.00%     75.00% # Class of executed instruction
system.cpu3.op_class::SimdAdd                       0      0.00%     75.00% # Class of executed instruction
system.cpu3.op_class::SimdAddAcc                    0      0.00%     75.00% # Class of executed instruction
system.cpu3.op_class::SimdAlu                       0      0.00%     75.00% # Class of executed instruction
system.cpu3.op_class::SimdCmp                       0      0.00%     75.00% # Class of executed instruction
system.cpu3.op_class::SimdCvt                       0      0.00%     75.00% # Class of executed instruction
system.cpu3.op_class::SimdMisc                      0      0.00%     75.00% # Class of executed instruction
system.cpu3.op_class::SimdMult                      0      0.00%     75.00% # Class of executed instruction
system.cpu3.op_class::SimdMultAcc                   0      0.00%     75.00% # Class of executed instruction
system.cpu3.op_class::SimdShift                     0      0.00%     75.00% # Class of executed instruction
system.cpu3.op_class::SimdShiftAcc                  0      0.00%     75.00% # Class of executed instruction
system.cpu3.op_class::SimdDiv                       0      0.00%     75.00% # Class of executed instruction
system.cpu3.op_class::SimdSqrt                      0      0.00%     75.00% # Class of executed instruction
system.cpu3.op_class::SimdFloatAdd                  1      4.17%     79.17% # Class of executed instruction
system.cpu3.op_class::SimdFloatAlu                  0      0.00%     79.17% # Class of executed instruction
system.cpu3.op_class::SimdFloatCmp                  0      0.00%     79.17% # Class of executed instruction
system.cpu3.op_class::SimdFloatCvt                  2      8.33%     87.50% # Class of executed instruction
system.cpu3.op_class::SimdFloatDiv                  0      0.00%     87.50% # Class of executed instruction
system.cpu3.op_class::SimdFloatMisc                 0      0.00%     87.50% # Class of executed instruction
system.cpu3.op_class::SimdFloatMult                 1      4.17%     91.67% # Class of executed instruction
system.cpu3.op_class::SimdFloatMultAcc              0      0.00%     91.67% # Class of executed instruction
system.cpu3.op_class::SimdFloatSqrt                 0      0.00%     91.67% # Class of executed instruction
system.cpu3.op_class::SimdReduceAdd                 0      0.00%     91.67% # Class of executed instruction
system.cpu3.op_class::SimdReduceAlu                 0      0.00%     91.67% # Class of executed instruction
system.cpu3.op_class::SimdReduceCmp                 0      0.00%     91.67% # Class of executed instruction
system.cpu3.op_class::SimdFloatReduceAdd            0      0.00%     91.67% # Class of executed instruction
system.cpu3.op_class::SimdFloatReduceCmp            0      0.00%     91.67% # Class of executed instruction
system.cpu3.op_class::SimdAes                       0      0.00%     91.67% # Class of executed instruction
system.cpu3.op_class::SimdAesMix                    0      0.00%     91.67% # Class of executed instruction
system.cpu3.op_class::SimdSha1Hash                  0      0.00%     91.67% # Class of executed instruction
system.cpu3.op_class::SimdSha1Hash2                 0      0.00%     91.67% # Class of executed instruction
system.cpu3.op_class::SimdSha256Hash                0      0.00%     91.67% # Class of executed instruction
system.cpu3.op_class::SimdSha256Hash2               0      0.00%     91.67% # Class of executed instruction
system.cpu3.op_class::SimdShaSigma2                 0      0.00%     91.67% # Class of executed instruction
system.cpu3.op_class::SimdShaSigma3                 0      0.00%     91.67% # Class of executed instruction
system.cpu3.op_class::SimdPredAlu                   0      0.00%     91.67% # Class of executed instruction
system.cpu3.op_class::MemRead                       0      0.00%     91.67% # Class of executed instruction
system.cpu3.op_class::MemWrite                      0      0.00%     91.67% # Class of executed instruction
system.cpu3.op_class::FloatMemRead                  2      8.33%    100.00% # Class of executed instruction
system.cpu3.op_class::FloatMemWrite                 0      0.00%    100.00% # Class of executed instruction
system.cpu3.op_class::IprAccess                     0      0.00%    100.00% # Class of executed instruction
system.cpu3.op_class::InstPrefetch                  0      0.00%    100.00% # Class of executed instruction
system.cpu3.op_class::total                        24                       # Class of executed instruction
system.cpu3.workload.numSyscalls                    0                       # Number of system calls
system.l3bus.snoop_filter.hit_multi_requests            0                       # Number of requests hitting in the snoop filter with multiple (>1) holders of the requested data.
system.l3bus.snoop_filter.hit_multi_snoops            0                       # Number of snoops hitting in the snoop filter with multiple (>1) holders of the requested data.
system.l3bus.snoop_filter.hit_single_requests      4739020                       # Number of requests hitting in the snoop filter with a single holder of the requested data.
system.l3bus.snoop_filter.hit_single_snoops            0                       # Number of snoops hitting in the snoop filter with a single holder of the requested data.
system.l3bus.snoop_filter.tot_requests        9496894                       # Total number of requests made to the snoop filter.
system.l3bus.snoop_filter.tot_snoops                0                       # Total number of snoops made to the snoop filter.
system.membus.snoop_filter.hit_multi_requests            0                       # Number of requests hitting in the snoop filter with multiple (>1) holders of the requested data.
system.membus.snoop_filter.hit_multi_snoops            0                       # Number of snoops hitting in the snoop filter with multiple (>1) holders of the requested data.
system.membus.snoop_filter.hit_single_requests       896391                       # Number of requests hitting in the snoop filter with a single holder of the requested data.
system.membus.snoop_filter.hit_single_snoops            0                       # Number of snoops hitting in the snoop filter with a single holder of the requested data.
system.membus.snoop_filter.tot_requests       1869301                       # Total number of requests made to the snoop filter.
system.membus.snoop_filter.tot_snoops               0                       # Total number of snoops made to the snoop filter.
system.switch_cpus0.cc_regfile_reads        193107212                       # number of cc regfile reads
system.switch_cpus0.cc_regfile_writes       110353384                       # number of cc regfile writes
system.switch_cpus0.committedInsts          249887003                       # Number of Instructions Simulated
system.switch_cpus0.committedOps            456238568                       # Number of Ops (including micro ops) Simulated
system.switch_cpus0.cpi                      0.692702                       # CPI: Cycles Per Instruction
system.switch_cpus0.cpi_total                0.692702                       # CPI: Total CPI of All Threads
system.switch_cpus0.fp_regfile_reads        309314015                       # number of floating regfile reads
system.switch_cpus0.fp_regfile_writes       225709820                       # number of floating regfile writes
system.switch_cpus0.idleCycles                 528069                       # Total number of cycles that the CPU has spent unscheduled due to idling
system.switch_cpus0.iew.branchMispredicts       619477                       # Number of branch mispredicts detected at execute
system.switch_cpus0.iew.exec_branches        34842865                       # Number of branches executed
system.switch_cpus0.iew.exec_nop                    0                       # number of nop insts executed
system.switch_cpus0.iew.exec_rate            2.835572                       # Inst execution rate
system.switch_cpus0.iew.exec_refs           107700342                       # number of memory reference insts executed
system.switch_cpus0.iew.exec_stores          30551517                       # Number of stores executed
system.switch_cpus0.iew.exec_swp                    0                       # number of swp insts executed
system.switch_cpus0.iew.iewBlockCycles       21538114                       # Number of cycles IEW is blocking
system.switch_cpus0.iew.iewDispLoadInsts     77032522                       # Number of dispatched load instructions
system.switch_cpus0.iew.iewDispNonSpecInsts         2129                       # Number of dispatched non-speculative instructions
system.switch_cpus0.iew.iewDispSquashedInsts        14128                       # Number of squashed instructions skipped by dispatch
system.switch_cpus0.iew.iewDispStoreInsts     32716751                       # Number of dispatched store instructions
system.switch_cpus0.iew.iewDispatchedInsts    500042230                       # Number of instructions dispatched to IQ
system.switch_cpus0.iew.iewExecLoadInsts     77148825                       # Number of load instructions executed
system.switch_cpus0.iew.iewExecSquashedInsts      2038907                       # Number of squashed instructions skipped in execute
system.switch_cpus0.iew.iewExecutedInsts    490829631                       # Number of executed instructions
system.switch_cpus0.iew.iewIQFullEvents        169643                       # Number of times the IQ has become full, causing a stall
system.switch_cpus0.iew.iewIdleCycles               0                       # Number of cycles IEW is idle
system.switch_cpus0.iew.iewLSQFullEvents      6711372                       # Number of times the LSQ has become full, causing a stall
system.switch_cpus0.iew.iewSquashCycles        724441                       # Number of cycles IEW is squashing
system.switch_cpus0.iew.iewUnblockCycles      6933324                       # Number of cycles IEW is unblocking
system.switch_cpus0.iew.memOrderViolationEvents        10873                       # Number of memory order violations
system.switch_cpus0.iew.predictedNotTakenIncorrect       226474                       # Number of branches that were predicted not taken incorrectly
system.switch_cpus0.iew.predictedTakenIncorrect       393003                       # Number of branches that were predicted taken incorrectly
system.switch_cpus0.iew.wb_consumers        536514857                       # num instructions consuming a value
system.switch_cpus0.iew.wb_count            487431729                       # cumulative count of insts written-back
system.switch_cpus0.iew.wb_fanout            0.600143                       # average fanout of values written-back
system.switch_cpus0.iew.wb_producers        321985708                       # num instructions producing a value
system.switch_cpus0.iew.wb_rate              2.815942                       # insts written-back per cycle
system.switch_cpus0.iew.wb_sent             489317376                       # cumulative count of insts sent to commit
system.switch_cpus0.int_regfile_reads       419868794                       # number of integer regfile reads
system.switch_cpus0.int_regfile_writes      182827985                       # number of integer regfile writes
system.switch_cpus0.ipc                      1.443622                       # IPC: Instructions Per Cycle
system.switch_cpus0.ipc_total                1.443622                       # IPC: Total IPC of All Threads
system.switch_cpus0.iq.FU_type_0::No_OpClass      1570823      0.32%      0.32% # Type of FU issued
system.switch_cpus0.iq.FU_type_0::IntAlu    222852759     45.22%     45.53% # Type of FU issued
system.switch_cpus0.iq.FU_type_0::IntMult        11451      0.00%     45.54% # Type of FU issued
system.switch_cpus0.iq.FU_type_0::IntDiv            0      0.00%     45.54% # Type of FU issued
system.switch_cpus0.iq.FU_type_0::FloatAdd     68831479     13.97%     59.50% # Type of FU issued
system.switch_cpus0.iq.FU_type_0::FloatCmp            0      0.00%     59.50% # Type of FU issued
system.switch_cpus0.iq.FU_type_0::FloatCvt            0      0.00%     59.50% # Type of FU issued
system.switch_cpus0.iq.FU_type_0::FloatMult            0      0.00%     59.50% # Type of FU issued
system.switch_cpus0.iq.FU_type_0::FloatMultAcc            0      0.00%     59.50% # Type of FU issued
system.switch_cpus0.iq.FU_type_0::FloatDiv            0      0.00%     59.50% # Type of FU issued
system.switch_cpus0.iq.FU_type_0::FloatMisc            0      0.00%     59.50% # Type of FU issued
system.switch_cpus0.iq.FU_type_0::FloatSqrt            0      0.00%     59.50% # Type of FU issued
system.switch_cpus0.iq.FU_type_0::SimdAdd            0      0.00%     59.50% # Type of FU issued
system.switch_cpus0.iq.FU_type_0::SimdAddAcc            0      0.00%     59.50% # Type of FU issued
system.switch_cpus0.iq.FU_type_0::SimdAlu      9242131      1.88%     61.38% # Type of FU issued
system.switch_cpus0.iq.FU_type_0::SimdCmp            0      0.00%     61.38% # Type of FU issued
system.switch_cpus0.iq.FU_type_0::SimdCvt            0      0.00%     61.38% # Type of FU issued
system.switch_cpus0.iq.FU_type_0::SimdMisc      5714947      1.16%     62.54% # Type of FU issued
system.switch_cpus0.iq.FU_type_0::SimdMult            0      0.00%     62.54% # Type of FU issued
system.switch_cpus0.iq.FU_type_0::SimdMultAcc            0      0.00%     62.54% # Type of FU issued
system.switch_cpus0.iq.FU_type_0::SimdShift            0      0.00%     62.54% # Type of FU issued
system.switch_cpus0.iq.FU_type_0::SimdShiftAcc            0      0.00%     62.54% # Type of FU issued
system.switch_cpus0.iq.FU_type_0::SimdDiv            0      0.00%     62.54% # Type of FU issued
system.switch_cpus0.iq.FU_type_0::SimdSqrt            0      0.00%     62.54% # Type of FU issued
system.switch_cpus0.iq.FU_type_0::SimdFloatAdd     23841727      4.84%     67.37% # Type of FU issued
system.switch_cpus0.iq.FU_type_0::SimdFloatAlu            0      0.00%     67.37% # Type of FU issued
system.switch_cpus0.iq.FU_type_0::SimdFloatCmp       652195      0.13%     67.51% # Type of FU issued
system.switch_cpus0.iq.FU_type_0::SimdFloatCvt     18089007      3.67%     71.18% # Type of FU issued
system.switch_cpus0.iq.FU_type_0::SimdFloatDiv      5720747      1.16%     72.34% # Type of FU issued
system.switch_cpus0.iq.FU_type_0::SimdFloatMisc            0      0.00%     72.34% # Type of FU issued
system.switch_cpus0.iq.FU_type_0::SimdFloatMult     27062137      5.49%     77.83% # Type of FU issued
system.switch_cpus0.iq.FU_type_0::SimdFloatMultAcc            0      0.00%     77.83% # Type of FU issued
system.switch_cpus0.iq.FU_type_0::SimdFloatSqrt      1016275      0.21%     78.03% # Type of FU issued
system.switch_cpus0.iq.FU_type_0::SimdReduceAdd            0      0.00%     78.03% # Type of FU issued
system.switch_cpus0.iq.FU_type_0::SimdReduceAlu            0      0.00%     78.03% # Type of FU issued
system.switch_cpus0.iq.FU_type_0::SimdReduceCmp            0      0.00%     78.03% # Type of FU issued
system.switch_cpus0.iq.FU_type_0::SimdFloatReduceAdd            0      0.00%     78.03% # Type of FU issued
system.switch_cpus0.iq.FU_type_0::SimdFloatReduceCmp            0      0.00%     78.03% # Type of FU issued
system.switch_cpus0.iq.FU_type_0::SimdAes            0      0.00%     78.03% # Type of FU issued
system.switch_cpus0.iq.FU_type_0::SimdAesMix            0      0.00%     78.03% # Type of FU issued
system.switch_cpus0.iq.FU_type_0::SimdSha1Hash            0      0.00%     78.03% # Type of FU issued
system.switch_cpus0.iq.FU_type_0::SimdSha1Hash2            0      0.00%     78.03% # Type of FU issued
system.switch_cpus0.iq.FU_type_0::SimdSha256Hash            0      0.00%     78.03% # Type of FU issued
system.switch_cpus0.iq.FU_type_0::SimdSha256Hash2            0      0.00%     78.03% # Type of FU issued
system.switch_cpus0.iq.FU_type_0::SimdShaSigma2            0      0.00%     78.03% # Type of FU issued
system.switch_cpus0.iq.FU_type_0::SimdShaSigma3            0      0.00%     78.03% # Type of FU issued
system.switch_cpus0.iq.FU_type_0::SimdPredAlu            0      0.00%     78.03% # Type of FU issued
system.switch_cpus0.iq.FU_type_0::MemRead     17033840      3.46%     81.49% # Type of FU issued
system.switch_cpus0.iq.FU_type_0::MemWrite      7987334      1.62%     83.11% # Type of FU issued
system.switch_cpus0.iq.FU_type_0::FloatMemRead     60557639     12.29%     95.40% # Type of FU issued
system.switch_cpus0.iq.FU_type_0::FloatMemWrite     22684047      4.60%    100.00% # Type of FU issued
system.switch_cpus0.iq.FU_type_0::IprAccess            0      0.00%    100.00% # Type of FU issued
system.switch_cpus0.iq.FU_type_0::InstPrefetch            0      0.00%    100.00% # Type of FU issued
system.switch_cpus0.iq.FU_type_0::total     492868538                       # Type of FU issued
system.switch_cpus0.iq.fp_alu_accesses      272160816                       # Number of floating point alu accesses
system.switch_cpus0.iq.fp_inst_queue_reads    541848315                       # Number of floating instruction queue reads
system.switch_cpus0.iq.fp_inst_queue_wakeup_accesses    266652761                       # Number of floating instruction queue wakeup accesses
system.switch_cpus0.iq.fp_inst_queue_writes    294677458                       # Number of floating instruction queue writes
system.switch_cpus0.iq.fu_busy_cnt            4772651                       # FU busy when requested
system.switch_cpus0.iq.fu_busy_rate          0.009683                       # FU busy rate (busy events/executed inst)
system.switch_cpus0.iq.fu_full::No_OpClass            0      0.00%      0.00% # attempts to use FU when none available
system.switch_cpus0.iq.fu_full::IntAlu        1329596     27.86%     27.86% # attempts to use FU when none available
system.switch_cpus0.iq.fu_full::IntMult             0      0.00%     27.86% # attempts to use FU when none available
system.switch_cpus0.iq.fu_full::IntDiv              0      0.00%     27.86% # attempts to use FU when none available
system.switch_cpus0.iq.fu_full::FloatAdd        94222      1.97%     29.83% # attempts to use FU when none available
system.switch_cpus0.iq.fu_full::FloatCmp            0      0.00%     29.83% # attempts to use FU when none available
system.switch_cpus0.iq.fu_full::FloatCvt            0      0.00%     29.83% # attempts to use FU when none available
system.switch_cpus0.iq.fu_full::FloatMult            0      0.00%     29.83% # attempts to use FU when none available
system.switch_cpus0.iq.fu_full::FloatMultAcc            0      0.00%     29.83% # attempts to use FU when none available
system.switch_cpus0.iq.fu_full::FloatDiv            0      0.00%     29.83% # attempts to use FU when none available
system.switch_cpus0.iq.fu_full::FloatMisc            0      0.00%     29.83% # attempts to use FU when none available
system.switch_cpus0.iq.fu_full::FloatSqrt            0      0.00%     29.83% # attempts to use FU when none available
system.switch_cpus0.iq.fu_full::SimdAdd             0      0.00%     29.83% # attempts to use FU when none available
system.switch_cpus0.iq.fu_full::SimdAddAcc            0      0.00%     29.83% # attempts to use FU when none available
system.switch_cpus0.iq.fu_full::SimdAlu        191736      4.02%     33.85% # attempts to use FU when none available
system.switch_cpus0.iq.fu_full::SimdCmp             0      0.00%     33.85% # attempts to use FU when none available
system.switch_cpus0.iq.fu_full::SimdCvt             0      0.00%     33.85% # attempts to use FU when none available
system.switch_cpus0.iq.fu_full::SimdMisc        26712      0.56%     34.41% # attempts to use FU when none available
system.switch_cpus0.iq.fu_full::SimdMult            0      0.00%     34.41% # attempts to use FU when none available
system.switch_cpus0.iq.fu_full::SimdMultAcc            0      0.00%     34.41% # attempts to use FU when none available
system.switch_cpus0.iq.fu_full::SimdShift            0      0.00%     34.41% # attempts to use FU when none available
system.switch_cpus0.iq.fu_full::SimdShiftAcc            0      0.00%     34.41% # attempts to use FU when none available
system.switch_cpus0.iq.fu_full::SimdDiv             0      0.00%     34.41% # attempts to use FU when none available
system.switch_cpus0.iq.fu_full::SimdSqrt            0      0.00%     34.41% # attempts to use FU when none available
system.switch_cpus0.iq.fu_full::SimdFloatAdd        89727      1.88%     36.29% # attempts to use FU when none available
system.switch_cpus0.iq.fu_full::SimdFloatAlu            0      0.00%     36.29% # attempts to use FU when none available
system.switch_cpus0.iq.fu_full::SimdFloatCmp            3      0.00%     36.29% # attempts to use FU when none available
system.switch_cpus0.iq.fu_full::SimdFloatCvt       141239      2.96%     39.25% # attempts to use FU when none available
system.switch_cpus0.iq.fu_full::SimdFloatDiv        14995      0.31%     39.56% # attempts to use FU when none available
system.switch_cpus0.iq.fu_full::SimdFloatMisc            0      0.00%     39.56% # attempts to use FU when none available
system.switch_cpus0.iq.fu_full::SimdFloatMult        93156      1.95%     41.52% # attempts to use FU when none available
system.switch_cpus0.iq.fu_full::SimdFloatMultAcc            0      0.00%     41.52% # attempts to use FU when none available
system.switch_cpus0.iq.fu_full::SimdFloatSqrt         1000      0.02%     41.54% # attempts to use FU when none available
system.switch_cpus0.iq.fu_full::SimdReduceAdd            0      0.00%     41.54% # attempts to use FU when none available
system.switch_cpus0.iq.fu_full::SimdReduceAlu            0      0.00%     41.54% # attempts to use FU when none available
system.switch_cpus0.iq.fu_full::SimdReduceCmp            0      0.00%     41.54% # attempts to use FU when none available
system.switch_cpus0.iq.fu_full::SimdFloatReduceAdd            0      0.00%     41.54% # attempts to use FU when none available
system.switch_cpus0.iq.fu_full::SimdFloatReduceCmp            0      0.00%     41.54% # attempts to use FU when none available
system.switch_cpus0.iq.fu_full::SimdAes             0      0.00%     41.54% # attempts to use FU when none available
system.switch_cpus0.iq.fu_full::SimdAesMix            0      0.00%     41.54% # attempts to use FU when none available
system.switch_cpus0.iq.fu_full::SimdSha1Hash            0      0.00%     41.54% # attempts to use FU when none available
system.switch_cpus0.iq.fu_full::SimdSha1Hash2            0      0.00%     41.54% # attempts to use FU when none available
system.switch_cpus0.iq.fu_full::SimdSha256Hash            0      0.00%     41.54% # attempts to use FU when none available
system.switch_cpus0.iq.fu_full::SimdSha256Hash2            0      0.00%     41.54% # attempts to use FU when none available
system.switch_cpus0.iq.fu_full::SimdShaSigma2            0      0.00%     41.54% # attempts to use FU when none available
system.switch_cpus0.iq.fu_full::SimdShaSigma3            0      0.00%     41.54% # attempts to use FU when none available
system.switch_cpus0.iq.fu_full::SimdPredAlu            0      0.00%     41.54% # attempts to use FU when none available
system.switch_cpus0.iq.fu_full::MemRead        399018      8.36%     49.90% # attempts to use FU when none available
system.switch_cpus0.iq.fu_full::MemWrite       650512     13.63%     63.53% # attempts to use FU when none available
system.switch_cpus0.iq.fu_full::FloatMemRead      1107163     23.20%     86.72% # attempts to use FU when none available
system.switch_cpus0.iq.fu_full::FloatMemWrite       633572     13.28%    100.00% # attempts to use FU when none available
system.switch_cpus0.iq.fu_full::IprAccess            0      0.00%    100.00% # attempts to use FU when none available
system.switch_cpus0.iq.fu_full::InstPrefetch            0      0.00%    100.00% # attempts to use FU when none available
system.switch_cpus0.iq.int_alu_accesses     223909550                       # Number of integer alu accesses
system.switch_cpus0.iq.int_inst_queue_reads    621481160                       # Number of integer instruction queue reads
system.switch_cpus0.iq.int_inst_queue_wakeup_accesses    220778968                       # Number of integer instruction queue wakeup accesses
system.switch_cpus0.iq.int_inst_queue_writes    249179058                       # Number of integer instruction queue writes
system.switch_cpus0.iq.iqInstsAdded         499914912                       # Number of instructions added to the IQ (excludes non-spec)
system.switch_cpus0.iq.iqInstsIssued        492868538                       # Number of instructions issued
system.switch_cpus0.iq.iqNonSpecInstsAdded       127318                       # Number of non-speculative instructions added to the IQ
system.switch_cpus0.iq.iqSquashedInstsExamined     43803623                       # Number of squashed instructions iterated over during squash; mainly for profiling
system.switch_cpus0.iq.iqSquashedInstsIssued       250603                       # Number of squashed instructions issued
system.switch_cpus0.iq.iqSquashedNonSpecRemoved       114454                       # Number of squashed non-spec instructions that were removed
system.switch_cpus0.iq.iqSquashedOperandsExamined     36354518                       # Number of squashed operands that are examined and possibly removed from graph
system.switch_cpus0.iq.issued_per_cycle::samples    172569145                       # Number of insts issued each cycle
system.switch_cpus0.iq.issued_per_cycle::mean     2.856064                       # Number of insts issued each cycle
system.switch_cpus0.iq.issued_per_cycle::stdev     3.029316                       # Number of insts issued each cycle
system.switch_cpus0.iq.issued_per_cycle::underflows            0      0.00%      0.00% # Number of insts issued each cycle
system.switch_cpus0.iq.issued_per_cycle::0     73878655     42.81%     42.81% # Number of insts issued each cycle
system.switch_cpus0.iq.issued_per_cycle::1      8717485      5.05%     47.86% # Number of insts issued each cycle
system.switch_cpus0.iq.issued_per_cycle::2      9873689      5.72%     53.58% # Number of insts issued each cycle
system.switch_cpus0.iq.issued_per_cycle::3     11287739      6.54%     60.13% # Number of insts issued each cycle
system.switch_cpus0.iq.issued_per_cycle::4     11575033      6.71%     66.83% # Number of insts issued each cycle
system.switch_cpus0.iq.issued_per_cycle::5     12355749      7.16%     73.99% # Number of insts issued each cycle
system.switch_cpus0.iq.issued_per_cycle::6     11896738      6.89%     80.89% # Number of insts issued each cycle
system.switch_cpus0.iq.issued_per_cycle::7     12791303      7.41%     88.30% # Number of insts issued each cycle
system.switch_cpus0.iq.issued_per_cycle::8     20192754     11.70%    100.00% # Number of insts issued each cycle
system.switch_cpus0.iq.issued_per_cycle::overflows            0      0.00%    100.00% # Number of insts issued each cycle
system.switch_cpus0.iq.issued_per_cycle::min_value            0                       # Number of insts issued each cycle
system.switch_cpus0.iq.issued_per_cycle::max_value            8                       # Number of insts issued each cycle
system.switch_cpus0.iq.issued_per_cycle::total    172569145                       # Number of insts issued each cycle
system.switch_cpus0.iq.rate                  2.847351                       # Inst issue rate
system.switch_cpus0.iq.vec_alu_accesses             0                       # Number of vector alu accesses
system.switch_cpus0.iq.vec_inst_queue_reads            0                       # Number of vector instruction queue reads
system.switch_cpus0.iq.vec_inst_queue_wakeup_accesses            0                       # Number of vector instruction queue wakeup accesses
system.switch_cpus0.iq.vec_inst_queue_writes            0                       # Number of vector instruction queue writes
system.switch_cpus0.memDep0.conflictingLoads      3515012                       # Number of conflicting loads.
system.switch_cpus0.memDep0.conflictingStores      3291534                       # Number of conflicting stores.
system.switch_cpus0.memDep0.insertedLoads     77032522                       # Number of loads inserted to the mem dependence unit.
system.switch_cpus0.memDep0.insertedStores     32716751                       # Number of stores inserted to the mem dependence unit.
system.switch_cpus0.misc_regfile_reads      194599624                       # number of misc regfile reads
system.switch_cpus0.misc_regfile_writes             1                       # number of misc regfile writes
system.switch_cpus0.numCycles               173097214                       # number of cpu cycles simulated
system.switch_cpus0.numWorkItemsCompleted            0                       # number of work items this cpu completed
system.switch_cpus0.numWorkItemsStarted             0                       # number of work items this cpu started
system.switch_cpus0.timesIdled                  12026                       # Number of times that the entire CPU went into an idle state and unscheduled itself
system.switch_cpus1.cc_regfile_reads        193102856                       # number of cc regfile reads
system.switch_cpus1.cc_regfile_writes       110351639                       # number of cc regfile writes
system.switch_cpus1.committedInsts          249879588                       # Number of Instructions Simulated
system.switch_cpus1.committedOps            456227495                       # Number of Ops (including micro ops) Simulated
system.switch_cpus1.cpi                      0.692723                       # CPI: Cycles Per Instruction
system.switch_cpus1.cpi_total                0.692723                       # CPI: Total CPI of All Threads
system.switch_cpus1.fp_regfile_reads        309311549                       # number of floating regfile reads
system.switch_cpus1.fp_regfile_writes       225709580                       # number of floating regfile writes
system.switch_cpus1.idleCycles                 529684                       # Total number of cycles that the CPU has spent unscheduled due to idling
system.switch_cpus1.iew.branchMispredicts       619721                       # Number of branch mispredicts detected at execute
system.switch_cpus1.iew.exec_branches        34842588                       # Number of branches executed
system.switch_cpus1.iew.exec_nop                    0                       # number of nop insts executed
system.switch_cpus1.iew.exec_rate            2.835592                       # Inst execution rate
system.switch_cpus1.iew.exec_refs           107702453                       # number of memory reference insts executed
system.switch_cpus1.iew.exec_stores          30550010                       # Number of stores executed
system.switch_cpus1.iew.exec_swp                    0                       # number of swp insts executed
system.switch_cpus1.iew.iewBlockCycles       21384065                       # Number of cycles IEW is blocking
system.switch_cpus1.iew.iewDispLoadInsts     77038259                       # Number of dispatched load instructions
system.switch_cpus1.iew.iewDispNonSpecInsts         2121                       # Number of dispatched non-speculative instructions
system.switch_cpus1.iew.iewDispSquashedInsts        14152                       # Number of squashed instructions skipped by dispatch
system.switch_cpus1.iew.iewDispStoreInsts     32718958                       # Number of dispatched store instructions
system.switch_cpus1.iew.iewDispatchedInsts    500056512                       # Number of instructions dispatched to IQ
system.switch_cpus1.iew.iewExecLoadInsts     77152443                       # Number of load instructions executed
system.switch_cpus1.iew.iewExecSquashedInsts      2040211                       # Number of squashed instructions skipped in execute
system.switch_cpus1.iew.iewExecutedInsts    490833023                       # Number of executed instructions
system.switch_cpus1.iew.iewIQFullEvents        169173                       # Number of times the IQ has become full, causing a stall
system.switch_cpus1.iew.iewIdleCycles               0                       # Number of cycles IEW is idle
system.switch_cpus1.iew.iewLSQFullEvents      6648184                       # Number of times the LSQ has become full, causing a stall
system.switch_cpus1.iew.iewSquashCycles        724752                       # Number of cycles IEW is squashing
system.switch_cpus1.iew.iewUnblockCycles      6869831                       # Number of cycles IEW is unblocking
system.switch_cpus1.iew.memOrderViolationEvents        10875                       # Number of memory order violations
system.switch_cpus1.iew.predictedNotTakenIncorrect       226753                       # Number of branches that were predicted not taken incorrectly
system.switch_cpus1.iew.predictedTakenIncorrect       392968                       # Number of branches that were predicted taken incorrectly
system.switch_cpus1.iew.wb_consumers        536525121                       # num instructions consuming a value
system.switch_cpus1.iew.wb_count            487433917                       # cumulative count of insts written-back
system.switch_cpus1.iew.wb_fanout            0.600146                       # average fanout of values written-back
system.switch_cpus1.iew.wb_producers        321993430                       # num instructions producing a value
system.switch_cpus1.iew.wb_rate              2.815955                       # insts written-back per cycle
system.switch_cpus1.iew.wb_sent             489320129                       # cumulative count of insts sent to commit
system.switch_cpus1.int_regfile_reads       419875803                       # number of integer regfile reads
system.switch_cpus1.int_regfile_writes      182832197                       # number of integer regfile writes
system.switch_cpus1.ipc                      1.443579                       # IPC: Instructions Per Cycle
system.switch_cpus1.ipc_total                1.443579                       # IPC: Total IPC of All Threads
system.switch_cpus1.iq.FU_type_0::No_OpClass      1571120      0.32%      0.32% # Type of FU issued
system.switch_cpus1.iq.FU_type_0::IntAlu    222853041     45.22%     45.53% # Type of FU issued
system.switch_cpus1.iq.FU_type_0::IntMult        11420      0.00%     45.54% # Type of FU issued
system.switch_cpus1.iq.FU_type_0::IntDiv            0      0.00%     45.54% # Type of FU issued
system.switch_cpus1.iq.FU_type_0::FloatAdd     68831891     13.97%     59.50% # Type of FU issued
system.switch_cpus1.iq.FU_type_0::FloatCmp            0      0.00%     59.50% # Type of FU issued
system.switch_cpus1.iq.FU_type_0::FloatCvt            0      0.00%     59.50% # Type of FU issued
system.switch_cpus1.iq.FU_type_0::FloatMult            0      0.00%     59.50% # Type of FU issued
system.switch_cpus1.iq.FU_type_0::FloatMultAcc            0      0.00%     59.50% # Type of FU issued
system.switch_cpus1.iq.FU_type_0::FloatDiv            0      0.00%     59.50% # Type of FU issued
system.switch_cpus1.iq.FU_type_0::FloatMisc            0      0.00%     59.50% # Type of FU issued
system.switch_cpus1.iq.FU_type_0::FloatSqrt            0      0.00%     59.50% # Type of FU issued
system.switch_cpus1.iq.FU_type_0::SimdAdd            0      0.00%     59.50% # Type of FU issued
system.switch_cpus1.iq.FU_type_0::SimdAddAcc            0      0.00%     59.50% # Type of FU issued
system.switch_cpus1.iq.FU_type_0::SimdAlu      9242441      1.88%     61.38% # Type of FU issued
system.switch_cpus1.iq.FU_type_0::SimdCmp            0      0.00%     61.38% # Type of FU issued
system.switch_cpus1.iq.FU_type_0::SimdCvt            0      0.00%     61.38% # Type of FU issued
system.switch_cpus1.iq.FU_type_0::SimdMisc      5715473      1.16%     62.54% # Type of FU issued
system.switch_cpus1.iq.FU_type_0::SimdMult            0      0.00%     62.54% # Type of FU issued
system.switch_cpus1.iq.FU_type_0::SimdMultAcc            0      0.00%     62.54% # Type of FU issued
system.switch_cpus1.iq.FU_type_0::SimdShift            0      0.00%     62.54% # Type of FU issued
system.switch_cpus1.iq.FU_type_0::SimdShiftAcc            0      0.00%     62.54% # Type of FU issued
system.switch_cpus1.iq.FU_type_0::SimdDiv            0      0.00%     62.54% # Type of FU issued
system.switch_cpus1.iq.FU_type_0::SimdSqrt            0      0.00%     62.54% # Type of FU issued
system.switch_cpus1.iq.FU_type_0::SimdFloatAdd     23841036      4.84%     67.37% # Type of FU issued
system.switch_cpus1.iq.FU_type_0::SimdFloatAlu            0      0.00%     67.37% # Type of FU issued
system.switch_cpus1.iq.FU_type_0::SimdFloatCmp       652242      0.13%     67.51% # Type of FU issued
system.switch_cpus1.iq.FU_type_0::SimdFloatCvt     18089336      3.67%     71.18% # Type of FU issued
system.switch_cpus1.iq.FU_type_0::SimdFloatDiv      5720649      1.16%     72.34% # Type of FU issued
system.switch_cpus1.iq.FU_type_0::SimdFloatMisc            0      0.00%     72.34% # Type of FU issued
system.switch_cpus1.iq.FU_type_0::SimdFloatMult     27062551      5.49%     77.83% # Type of FU issued
system.switch_cpus1.iq.FU_type_0::SimdFloatMultAcc            0      0.00%     77.83% # Type of FU issued
system.switch_cpus1.iq.FU_type_0::SimdFloatSqrt      1016360      0.21%     78.03% # Type of FU issued
system.switch_cpus1.iq.FU_type_0::SimdReduceAdd            0      0.00%     78.03% # Type of FU issued
system.switch_cpus1.iq.FU_type_0::SimdReduceAlu            0      0.00%     78.03% # Type of FU issued
system.switch_cpus1.iq.FU_type_0::SimdReduceCmp            0      0.00%     78.03% # Type of FU issued
system.switch_cpus1.iq.FU_type_0::SimdFloatReduceAdd            0      0.00%     78.03% # Type of FU issued
system.switch_cpus1.iq.FU_type_0::SimdFloatReduceCmp            0      0.00%     78.03% # Type of FU issued
[...]
system.switch_cpus3.commit.numCommittedDist::1     13883834      8.29%     59.49% # Number of insts commited each cycle
system.switch_cpus3.commit.numCommittedDist::2      3436402      2.05%     61.54% # Number of insts commited each cycle
system.switch_cpus3.commit.numCommittedDist::3      7184358      4.29%     65.83% # Number of insts commited each cycle
system.switch_cpus3.commit.numCommittedDist::4      5752431      3.44%     69.27% # Number of insts commited each cycle
system.switch_cpus3.commit.numCommittedDist::5      3966237      2.37%     71.64% # Number of insts commited each cycle
system.switch_cpus3.commit.numCommittedDist::6      2808039      1.68%     73.31% # Number of insts commited each cycle
system.switch_cpus3.commit.numCommittedDist::7      2909203      1.74%     75.05% # Number of insts commited each cycle
system.switch_cpus3.commit.numCommittedDist::8     41759423     24.95%    100.00% # Number of insts commited each cycle
system.switch_cpus3.commit.numCommittedDist::overflows            0      0.00%    100.00% # Number of insts commited each cycle
system.switch_cpus3.commit.numCommittedDist::min_value            0                       # Number of insts commited each cycle
system.switch_cpus3.commit.numCommittedDist::max_value            8                       # Number of insts commited each cycle
system.switch_cpus3.commit.numCommittedDist::total    167390369                       # Number of insts commited each cycle
system.switch_cpus3.commit.instsCommitted    250000002                       # Number of instructions committed
system.switch_cpus3.commit.opsCommitted     456438660                       # Number of ops (including micro ops) committed
system.switch_cpus3.commit.memRefs           95535589                       # Number of memory references committed
system.switch_cpus3.commit.loads             69324057                       # Number of loads committed
system.switch_cpus3.commit.amos                     0                       # Number of atomic instructions committed
system.switch_cpus3.commit.membars               1880                       # Number of memory barriers committed
system.switch_cpus3.commit.branches          33082920                       # Number of branches committed
system.switch_cpus3.commit.vector                   0                       # Number of committed Vector instructions.
system.switch_cpus3.commit.floating         253088999                       # Number of committed floating point instructions.
system.switch_cpus3.commit.integer          282469133                       # Number of committed integer instructions.
system.switch_cpus3.commit.functionCalls      1781692                       # Number of function calls committed.
system.switch_cpus3.commit.committedInstType_0::No_OpClass       157149      0.03%      0.03% # Class of committed instruction
system.switch_cpus3.commit.committedInstType_0::IntAlu    206294733     45.20%     45.23% # Class of committed instruction
system.switch_cpus3.commit.committedInstType_0::IntMult        10887      0.00%     45.23% # Class of committed instruction
system.switch_cpus3.commit.committedInstType_0::IntDiv            0      0.00%     45.23% # Class of committed instruction
system.switch_cpus3.commit.committedInstType_0::FloatAdd     65125216     14.27%     59.50% # Class of committed instruction
system.switch_cpus3.commit.committedInstType_0::FloatCmp            0      0.00%     59.50% # Class of committed instruction
system.switch_cpus3.commit.committedInstType_0::FloatCvt            0      0.00%     59.50% # Class of committed instruction
system.switch_cpus3.commit.committedInstType_0::FloatMult            0      0.00%     59.50% # Class of committed instruction
system.switch_cpus3.commit.committedInstType_0::FloatMultAcc            0      0.00%     59.50% # Class of committed instruction
system.switch_cpus3.commit.committedInstType_0::FloatDiv            0      0.00%     59.50% # Class of committed instruction
system.switch_cpus3.commit.committedInstType_0::FloatMisc            0      0.00%     59.50% # Class of committed instruction
system.switch_cpus3.commit.committedInstType_0::FloatSqrt            0      0.00%     59.50% # Class of committed instruction
system.switch_cpus3.commit.committedInstType_0::SimdAdd            0      0.00%     59.50% # Class of committed instruction
system.switch_cpus3.commit.committedInstType_0::SimdAddAcc            0      0.00%     59.50% # Class of committed instruction
system.switch_cpus3.commit.committedInstType_0::SimdAlu      8954648      1.96%     61.46% # Class of committed instruction
system.switch_cpus3.commit.committedInstType_0::SimdCmp            0      0.00%     61.46% # Class of committed instruction
system.switch_cpus3.commit.committedInstType_0::SimdCvt            0      0.00%     61.46% # Class of committed instruction
system.switch_cpus3.commit.committedInstType_0::SimdMisc      5666285      1.24%     62.70% # Class of committed instruction
system.switch_cpus3.commit.committedInstType_0::SimdMult            0      0.00%     62.70% # Class of committed instruction
system.switch_cpus3.commit.committedInstType_0::SimdMultAcc            0      0.00%     62.70% # Class of committed instruction
system.switch_cpus3.commit.committedInstType_0::SimdShift            0      0.00%     62.70% # Class of committed instruction
system.switch_cpus3.commit.committedInstType_0::SimdShiftAcc            0      0.00%     62.70% # Class of committed instruction
system.switch_cpus3.commit.committedInstType_0::SimdDiv            0      0.00%     62.70% # Class of committed instruction
system.switch_cpus3.commit.committedInstType_0::SimdSqrt            0      0.00%     62.70% # Class of committed instruction
system.switch_cpus3.commit.committedInstType_0::SimdFloatAdd     23219967      5.09%     67.79% # Class of committed instruction
system.switch_cpus3.commit.committedInstType_0::SimdFloatAlu            0      0.00%     67.79% # Class of committed instruction
system.switch_cpus3.commit.committedInstType_0::SimdFloatCmp       645181      0.14%     67.93% # Class of committed instruction
system.switch_cpus3.commit.committedInstType_0::SimdFloatCvt     17698286      3.88%     71.81% # Class of committed instruction
system.switch_cpus3.commit.committedInstType_0::SimdFloatDiv      5533644      1.21%     73.02% # Class of committed instruction
system.switch_cpus3.commit.committedInstType_0::SimdFloatMisc            0      0.00%     73.02% # Class of committed instruction
system.switch_cpus3.commit.committedInstType_0::SimdFloatMult     26610426      5.83%     78.85% # Class of committed instruction
system.switch_cpus3.commit.committedInstType_0::SimdFloatMultAcc            0      0.00%     78.85% # Class of committed instruction
system.switch_cpus3.commit.committedInstType_0::SimdFloatSqrt       986649      0.22%     79.07% # Class of committed instruction
system.switch_cpus3.commit.committedInstType_0::SimdReduceAdd            0      0.00%     79.07% # Class of committed instruction
system.switch_cpus3.commit.committedInstType_0::SimdReduceAlu            0      0.00%     79.07% # Class of committed instruction
system.switch_cpus3.commit.committedInstType_0::SimdReduceCmp            0      0.00%     79.07% # Class of committed instruction
system.switch_cpus3.commit.committedInstType_0::SimdFloatReduceAdd            0      0.00%     79.07% # Class of committed instruction
system.switch_cpus3.commit.committedInstType_0::SimdFloatReduceCmp            0      0.00%     79.07% # Class of committed instruction
system.switch_cpus3.commit.committedInstType_0::SimdAes            0      0.00%     79.07% # Class of committed instruction
system.switch_cpus3.commit.committedInstType_0::SimdAesMix            0      0.00%     79.07% # Class of committed instruction
system.switch_cpus3.commit.committedInstType_0::SimdSha1Hash            0      0.00%     79.07% # Class of committed instruction
system.switch_cpus3.commit.committedInstType_0::SimdSha1Hash2            0      0.00%     79.07% # Class of committed instruction
system.switch_cpus3.commit.committedInstType_0::SimdSha256Hash            0      0.00%     79.07% # Class of committed instruction
system.switch_cpus3.commit.committedInstType_0::SimdSha256Hash2            0      0.00%     79.07% # Class of committed instruction
system.switch_cpus3.commit.committedInstType_0::SimdShaSigma2            0      0.00%     79.07% # Class of committed instruction
system.switch_cpus3.commit.committedInstType_0::SimdShaSigma3            0      0.00%     79.07% # Class of committed instruction
system.switch_cpus3.commit.committedInstType_0::SimdPredAlu            0      0.00%     79.07% # Class of committed instruction
system.switch_cpus3.commit.committedInstType_0::MemRead     15185749      3.33%     82.40% # Class of committed instruction
system.switch_cpus3.commit.committedInstType_0::MemWrite      6521327      1.43%     83.83% # Class of committed instruction
system.switch_cpus3.commit.committedInstType_0::FloatMemRead     54138308     11.86%     95.69% # Class of committed instruction
system.switch_cpus3.commit.committedInstType_0::FloatMemWrite     19690205      4.31%    100.00% # Class of committed instruction
system.switch_cpus3.commit.committedInstType_0::IprAccess            0      0.00%    100.00% # Class of committed instruction
system.switch_cpus3.commit.committedInstType_0::InstPrefetch            0      0.00%    100.00% # Class of committed instruction
system.switch_cpus3.commit.committedInstType_0::total    456438660                       # Class of committed instruction
system.switch_cpus3.commit.commitEligibleSamples     41759423                       # number cycles where commit BW limit reached
system.switch_cpus3.decode.idleCycles         8324577                       # Number of cycles decode is idle
system.switch_cpus3.decode.blockedCycles     91139743                       # Number of cycles decode is blocked
system.switch_cpus3.decode.runCycles         60042626                       # Number of cycles decode is running
system.switch_cpus3.decode.unblockCycles     12367060                       # Number of cycles decode is unblocking
system.switch_cpus3.decode.squashCycles        724238                       # Number of cycles decode is squashing
system.switch_cpus3.decode.branchResolved     17539569                       # Number of times decode resolved a  branch
system.switch_cpus3.decode.branchMispred         3949                       # Number of times decode detected a branch misprediction
system.switch_cpus3.decode.decodedInsts     511927862                       # Number of instructions handled by decode
system.switch_cpus3.decode.squashedInsts        20444                       # Number of squashed instructions handled by decode
system.switch_cpus3.dtb.rdAccesses           77873743                       # TLB accesses on read requests
system.switch_cpus3.dtb.wrAccesses           30631848                       # TLB accesses on write requests
system.switch_cpus3.dtb.rdMisses                24750                       # TLB misses on read requests
system.switch_cpus3.dtb.wrMisses                11409                       # TLB misses on write requests
system.switch_cpus3.dtb.walker.power_state.pwrStateResidencyTicks::UNDEFINED 18203955754068                       # Cumulative time (in ticks) in various power states
system.switch_cpus3.fetch.icacheStallCycles      1203822                       # Number of cycles fetch is stalled on an Icache miss
system.switch_cpus3.fetch.insts             284937915                       # Number of instructions fetch has processed
system.switch_cpus3.fetch.branches           38201849                       # Number of branches that fetch encountered
system.switch_cpus3.fetch.predictedBranches     22094905                       # Number of branches that fetch has predicted taken
system.switch_cpus3.fetch.cycles            170645400                       # Number of cycles fetch has run and was not squashing or blocked
system.switch_cpus3.fetch.squashCycles        1456252                       # Number of cycles fetch has spent squashing
system.switch_cpus3.fetch.tlbCycles                 1                       # Number of cycles fetch has spent waiting for tlb
system.switch_cpus3.fetch.miscStallCycles         2738                       # Number of cycles fetch has spent waiting on interrupts,or bad addresses, or out of MSHRs
system.switch_cpus3.fetch.pendingTrapStallCycles        18161                       # Number of stall cycles due to pending traps
system.switch_cpus3.fetch.cacheLines         36824599                       # Number of cache lines fetched
system.switch_cpus3.fetch.icacheSquashes         9952                       # Number of outstanding Icache misses that were squashed
system.switch_cpus3.fetch.nisnDist::samples    172598248                       # Number of instructions fetched each cycle (Total)
system.switch_cpus3.fetch.nisnDist::mean     3.041246                       # Number of instructions fetched each cycle (Total)
system.switch_cpus3.fetch.nisnDist::stdev     3.490298                       # Number of instructions fetched each cycle (Total)
system.switch_cpus3.fetch.nisnDist::underflows            0      0.00%      0.00% # Number of instructions fetched each cycle (Total)
system.switch_cpus3.fetch.nisnDist::0        86457977     50.09%     50.09% # Number of instructions fetched each cycle (Total)
system.switch_cpus3.fetch.nisnDist::1         5301712      3.07%     53.16% # Number of instructions fetched each cycle (Total)
system.switch_cpus3.fetch.nisnDist::2         4946221      2.87%     56.03% # Number of instructions fetched each cycle (Total)
system.switch_cpus3.fetch.nisnDist::3         8469580      4.91%     60.94% # Number of instructions fetched each cycle (Total)
system.switch_cpus3.fetch.nisnDist::4         4977915      2.88%     63.82% # Number of instructions fetched each cycle (Total)
system.switch_cpus3.fetch.nisnDist::5         6440713      3.73%     67.55% # Number of instructions fetched each cycle (Total)
system.switch_cpus3.fetch.nisnDist::6         5167166      2.99%     70.55% # Number of instructions fetched each cycle (Total)
system.switch_cpus3.fetch.nisnDist::7         5503025      3.19%     73.73% # Number of instructions fetched each cycle (Total)
system.switch_cpus3.fetch.nisnDist::8        45333939     26.27%    100.00% # Number of instructions fetched each cycle (Total)
system.switch_cpus3.fetch.nisnDist::overflows            0      0.00%    100.00% # Number of instructions fetched each cycle (Total)
system.switch_cpus3.fetch.nisnDist::min_value            0                       # Number of instructions fetched each cycle (Total)
system.switch_cpus3.fetch.nisnDist::max_value            8                       # Number of instructions fetched each cycle (Total)
system.switch_cpus3.fetch.nisnDist::total    172598248                       # Number of instructions fetched each cycle (Total)
system.switch_cpus3.fetch.branchRate         0.220696                       # Number of branch fetches per cycle
system.switch_cpus3.fetch.rate               1.646115                       # Number of inst fetches per cycle
system.switch_cpus3.itb.rdAccesses                  0                       # TLB accesses on read requests
system.switch_cpus3.itb.wrAccesses           36827624                       # TLB accesses on write requests
system.switch_cpus3.itb.rdMisses                    0                       # TLB misses on read requests
system.switch_cpus3.itb.wrMisses                 3095                       # TLB misses on write requests
system.switch_cpus3.itb.walker.power_state.pwrStateResidencyTicks::UNDEFINED 18203955754068                       # Cumulative time (in ticks) in various power states
system.switch_cpus3.lsq0.forwLoads            5321168                       # Number of loads that had data forwarded from stores
system.switch_cpus3.lsq0.squashedLoads        7741237                       # Number of loads squashed
system.switch_cpus3.lsq0.ignoredResponses         1587                       # Number of memory responses ignored because the instruction is squashed
system.switch_cpus3.lsq0.memOrderViolation        10713                       # Number of memory ordering violations
system.switch_cpus3.lsq0.squashedStores       6549091                       # Number of stores squashed
system.switch_cpus3.lsq0.rescheduledLoads      1005201                       # Number of loads that were rescheduled
system.switch_cpus3.lsq0.blockedByCache          8981                       # Number of times an access to memory failed due to the cache being blocked
system.switch_cpus3.power_state.pwrStateResidencyTicks::OFF  57641382585                       # Cumulative time (in ticks) in various power states
system.switch_cpus3.rename.squashCycles        724238                       # Number of cycles rename is squashing
system.switch_cpus3.rename.idleCycles        13179157                       # Number of cycles rename is idle
system.switch_cpus3.rename.blockCycles       38123592                       # Number of cycles rename is blocking
system.switch_cpus3.rename.serializeStallCycles            0                       # count of cycles rename stalledfor serializing inst
system.switch_cpus3.rename.runCycles         67135160                       # Number of cycles rename is running
system.switch_cpus3.rename.unblockCycles     53436097                       # Number of cycles rename is unblocking
system.switch_cpus3.rename.renamedInsts     506843615                       # Number of instructions processed by rename
system.switch_cpus3.rename.ROBFullEvents      1508056                       # Number of times rename has blocked due to ROB full
system.switch_cpus3.rename.IQFullEvents      12333085                       # Number of times rename has blocked due to IQ full
system.switch_cpus3.rename.LQFullEvents      14050056                       # Number of times rename has blocked due to LQ full
system.switch_cpus3.rename.SQFullEvents      24582155                       # Number of times rename has blocked due to SQ full
system.switch_cpus3.rename.renamedOperands    535980096                       # Number of destination operands rename has renamed
system.switch_cpus3.rename.lookups         1164023450                       # Number of register rename lookups that rename has made
system.switch_cpus3.rename.intLookups       435025819                       # Number of integer rename lookups
system.switch_cpus3.rename.fpLookups        323069647                       # Number of floating rename lookups
system.switch_cpus3.rename.committedMaps    486355501                       # Number of HB maps that are committed
system.switch_cpus3.rename.undoneMaps        49624561                       # Number of HB maps that are undone due to squashing
system.switch_cpus3.rename.serializing              0                       # count of serializing insts renamed
system.switch_cpus3.rename.tempSerializing            0                       # count of temporary serializing insts renamed
system.switch_cpus3.rename.skidInsts         55773245                       # count of insts added to the skid buffer
system.switch_cpus3.rob.reads               618874187                       # The number of ROB reads
system.switch_cpus3.rob.writes              995876737                       # The number of ROB writes
system.switch_cpus3.thread0.numInsts        250000002                       # Number of Instructions committed
system.switch_cpus3.thread0.numOps          456438660                       # Number of Ops committed
system.switch_cpus3.thread0.numMemRefs              0                       # Number of Memory References
system.voltage_domain.voltage                       1                       # Voltage in Volts

---------- End Simulation Statistics   ----------
