
---------- Begin Simulation Statistics ----------
final_tick                               16607516736456                       # Number of ticks from beginning of simulation (restored from checkpoints and never reset)
host_inst_rate                                 117792                       # Simulator instruction rate (inst/s)
host_mem_usage                               17510892                       # Number of bytes of host memory used
host_op_rate                                   190417                       # Simulator op (including micro ops) rate (op/s)
host_seconds                                  8488.86                       # Real time elapsed on the host
host_tick_rate                                7201681                       # Simulator tick rate (ticks/s)
sim_freq                                 1000000000000                       # Frequency of simulated ticks
sim_insts                                   999922568                       # Number of instructions simulated
sim_ops                                    1616421152                       # Number of ops (including micro ops) simulated
sim_seconds                                  0.061134                       # Number of seconds simulated
sim_ticks                                 61134075396                       # Number of ticks simulated
system.cpu0.Branches                                2                       # Number of branches fetched
system.cpu0.committedInsts                         17                       # Number of instructions committed
system.cpu0.committedOps                           23                       # Number of ops (including micro ops) committed
system.cpu0.idle_fraction                           0                       # Percentage of idle cycles
system.cpu0.l2bus.snoop_filter.hit_multi_requests         1005                       # Number of requests hitting in the snoop filter with multiple (>1) holders of the requested data.
system.cpu0.l2bus.snoop_filter.hit_multi_snoops            0                       # Number of snoops hitting in the snoop filter with multiple (>1) holders of the requested data.
system.cpu0.l2bus.snoop_filter.hit_single_requests       543767                       # Number of requests hitting in the snoop filter with a single holder of the requested data.
system.cpu0.l2bus.snoop_filter.hit_single_snoops         4721                       # Number of snoops hitting in the snoop filter with a single holder of the requested data.
system.cpu0.l2bus.snoop_filter.tot_requests      1087822                       # Total number of requests made to the snoop filter.
system.cpu0.l2bus.snoop_filter.tot_snoops         4721                       # Total number of snoops made to the snoop filter.
system.cpu0.mmucache.mmubus.snoop_filter.hit_multi_requests            0                       # Number of requests hitting in the snoop filter with multiple (>1) holders of the requested data.
system.cpu0.mmucache.mmubus.snoop_filter.hit_multi_snoops            0                       # Number of snoops hitting in the snoop filter with multiple (>1) holders of the requested data.
system.cpu0.mmucache.mmubus.snoop_filter.hit_single_requests            0                       # Number of requests hitting in the snoop filter with a single holder of the requested data.
system.cpu0.mmucache.mmubus.snoop_filter.hit_single_snoops            0                       # Number of snoops hitting in the snoop filter with a single holder of the requested data.
system.cpu0.mmucache.mmubus.snoop_filter.tot_requests            0                       # Total number of requests made to the snoop filter.
system.cpu0.mmucache.mmubus.snoop_filter.tot_snoops            0                       # Total number of snoops made to the snoop filter.
system.cpu0.not_idle_fraction                       1                       # Percentage of non-idle cycles
system.cpu0.numCycles                              32                       # number of cpu cycles simulated
system.cpu0.numWorkItemsCompleted                   0                       # number of work items this cpu completed
system.cpu0.numWorkItemsStarted                     0                       # number of work items this cpu started
system.cpu0.num_busy_cycles                        32                       # Number of busy cycles
system.cpu0.num_cc_register_reads                  13                       # number of times the CC registers were read
system.cpu0.num_cc_register_writes                 16                       # number of times the CC registers were written
system.cpu0.num_conditional_control_insts            2                       # number of instructions that are conditional controls
system.cpu0.num_fp_alu_accesses                     0                       # Number of float alu accesses
system.cpu0.num_fp_insts                            0                       # number of float instructions
system.cpu0.num_fp_register_reads                   0                       # number of times the floating registers were read
system.cpu0.num_fp_register_writes                  0                       # number of times the floating registers were written
system.cpu0.num_func_calls                          0                       # number of times a function call or return occured
system.cpu0.num_idle_cycles                         0                       # Number of idle cycles
system.cpu0.num_int_alu_accesses                   23                       # Number of integer alu accesses
system.cpu0.num_int_insts                          23                       # number of integer instructions
system.cpu0.num_int_register_reads                 50                       # number of times the integer registers were read
system.cpu0.num_int_register_writes                20                       # number of times the integer registers were written
system.cpu0.num_load_insts                          3                       # Number of load instructions
system.cpu0.num_mem_refs                            4                       # number of memory refs
system.cpu0.num_store_insts                         1                       # Number of store instructions
system.cpu0.num_vec_alu_accesses                    0                       # Number of vector alu accesses
system.cpu0.num_vec_insts                           0                       # number of vector instructions
system.cpu0.num_vec_register_reads                  0                       # number of times the vector registers were read
system.cpu0.num_vec_register_writes                 0                       # number of times the vector registers were written
system.cpu0.op_class::No_OpClass                    0      0.00%      0.00% # Class of executed instruction
system.cpu0.op_class::IntAlu                       19     82.61%     82.61% # Class of executed instruction
system.cpu0.op_class::IntMult                       0      0.00%     82.61% # Class of executed instruction
system.cpu0.op_class::IntDiv                        0      0.00%     82.61% # Class of executed instruction
system.cpu0.op_class::FloatAdd                      0      0.00%     82.61% # Class of executed instruction
system.cpu0.op_class::FloatCmp                      0      0.00%     82.61% # Class of executed instruction
system.cpu0.op_class::FloatCvt                      0      0.00%     82.61% # Class of executed instruction
system.cpu0.op_class::FloatMult                     0      0.00%     82.61% # Class of executed instruction
system.cpu0.op_class::FloatMultAcc                  0      0.00%     82.61% # Class of executed instruction
system.cpu0.op_class::FloatDiv                      0      0.00%     82.61% # Class of executed instruction
system.cpu0.op_class::FloatMisc                     0      0.00%     82.61% # Class of executed instruction
system.cpu0.op_class::FloatSqrt                     0      0.00%     82.61% # Class of executed instruction
system.cpu0.op_class::SimdAdd                       0      0.00%     82.61% # Class of executed instruction
system.cpu0.op_class::SimdAddAcc                    0      0.00%     82.61% # Class of executed instruction
system.cpu0.op_class::SimdAlu                       0      0.00%     82.61% # Class of executed instruction
system.cpu0.op_class::SimdCmp                       0      0.00%     82.61% # Class of executed instruction
system.cpu0.op_class::SimdCvt                       0      0.00%     82.61% # Class of executed instruction
system.cpu0.op_class::SimdMisc                      0      0.00%     82.61% # Class of executed instruction
system.cpu0.op_class::SimdMult                      0      0.00%     82.61% # Class of executed instruction
system.cpu0.op_class::SimdMultAcc                   0      0.00%     82.61% # Class of executed instruction
system.cpu0.op_class::SimdShift                     0      0.00%     82.61% # Class of executed instruction
system.cpu0.op_class::SimdShiftAcc                  0      0.00%     82.61% # Class of executed instruction
system.cpu0.op_class::SimdDiv                       0      0.00%     82.61% # Class of executed instruction
system.cpu0.op_class::SimdSqrt                      0      0.00%     82.61% # Class of executed instruction
system.cpu0.op_class::SimdFloatAdd                  0      0.00%     82.61% # Class of executed instruction
system.cpu0.op_class::SimdFloatAlu                  0      0.00%     82.61% # Class of executed instruction
system.cpu0.op_class::SimdFloatCmp                  0      0.00%     82.61% # Class of executed instruction
system.cpu0.op_class::SimdFloatCvt                  0      0.00%     82.61% # Class of executed instruction
system.cpu0.op_class::SimdFloatDiv                  0      0.00%     82.61% # Class of executed instruction
system.cpu0.op_class::SimdFloatMisc                 0      0.00%     82.61% # Class of executed instruction
system.cpu0.op_class::SimdFloatMult                 0      0.00%     82.61% # Class of executed instruction
system.cpu0.op_class::SimdFloatMultAcc              0      0.00%     82.61% # Class of executed instruction
system.cpu0.op_class::SimdFloatSqrt                 0      0.00%     82.61% # Class of executed instruction
system.cpu0.op_class::SimdReduceAdd                 0      0.00%     82.61% # Class of executed instruction
system.cpu0.op_class::SimdReduceAlu                 0      0.00%     82.61% # Class of executed instruction
system.cpu0.op_class::SimdReduceCmp                 0      0.00%     82.61% # Class of executed instruction
system.cpu0.op_class::SimdFloatReduceAdd            0      0.00%     82.61% # Class of executed instruction
system.cpu0.op_class::SimdFloatReduceCmp            0      0.00%     82.61% # Class of executed instruction
system.cpu0.op_class::SimdAes                       0      0.00%     82.61% # Class of executed instruction
system.cpu0.op_class::SimdAesMix                    0      0.00%     82.61% # Class of executed instruction
system.cpu0.op_class::SimdSha1Hash                  0      0.00%     82.61% # Class of executed instruction
system.cpu0.op_class::SimdSha1Hash2                 0      0.00%     82.61% # Class of executed instruction
system.cpu0.op_class::SimdSha256Hash                0      0.00%     82.61% # Class of executed instruction
system.cpu0.op_class::SimdSha256Hash2               0      0.00%     82.61% # Class of executed instruction
system.cpu0.op_class::SimdShaSigma2                 0      0.00%     82.61% # Class of executed instruction
system.cpu0.op_class::SimdShaSigma3                 0      0.00%     82.61% # Class of executed instruction
system.cpu0.op_class::SimdPredAlu                   0      0.00%     82.61% # Class of executed instruction
system.cpu0.op_class::MemRead                       3     13.04%     95.65% # Class of executed instruction
system.cpu0.op_class::MemWrite                      1      4.35%    100.00% # Class of executed instruction
system.cpu0.op_class::FloatMemRead                  0      0.00%    100.00% # Class of executed instruction
system.cpu0.op_class::FloatMemWrite                 0      0.00%    100.00% # Class of executed instruction
system.cpu0.op_class::IprAccess                     0      0.00%    100.00% # Class of executed instruction
system.cpu0.op_class::InstPrefetch                  0      0.00%    100.00% # Class of executed instruction
system.cpu0.op_class::total                        23                       # Class of executed instruction
system.cpu0.workload.numSyscalls                    0                       # Number of system calls
system.cpu1.Branches                                2                       # Number of branches fetched
system.cpu1.committedInsts                         17                       # Number of instructions committed
system.cpu1.committedOps                           23                       # Number of ops (including micro ops) committed
system.cpu1.idle_fraction                           0                       # Percentage of idle cycles
system.cpu1.l2bus.snoop_filter.hit_multi_requests         1193                       # Number of requests hitting in the snoop filter with multiple (>1) holders of the requested data.
system.cpu1.l2bus.snoop_filter.hit_multi_snoops            0                       # Number of snoops hitting in the snoop filter with multiple (>1) holders of the requested data.
system.cpu1.l2bus.snoop_filter.hit_single_requests       543666                       # Number of requests hitting in the snoop filter with a single holder of the requested data.
system.cpu1.l2bus.snoop_filter.hit_single_snoops         2887                       # Number of snoops hitting in the snoop filter with a single holder of the requested data.
system.cpu1.l2bus.snoop_filter.tot_requests      1087736                       # Total number of requests made to the snoop filter.
system.cpu1.l2bus.snoop_filter.tot_snoops         2887                       # Total number of snoops made to the snoop filter.
system.cpu1.mmucache.mmubus.snoop_filter.hit_multi_requests            0                       # Number of requests hitting in the snoop filter with multiple (>1) holders of the requested data.
system.cpu1.mmucache.mmubus.snoop_filter.hit_multi_snoops            0                       # Number of snoops hitting in the snoop filter with multiple (>1) holders of the requested data.
system.cpu1.mmucache.mmubus.snoop_filter.hit_single_requests            0                       # Number of requests hitting in the snoop filter with a single holder of the requested data.
system.cpu1.mmucache.mmubus.snoop_filter.hit_single_snoops            0                       # Number of snoops hitting in the snoop filter with a single holder of the requested data.
system.cpu1.mmucache.mmubus.snoop_filter.tot_requests            0                       # Total number of requests made to the snoop filter.
system.cpu1.mmucache.mmubus.snoop_filter.tot_snoops            0                       # Total number of snoops made to the snoop filter.
system.cpu1.not_idle_fraction                       1                       # Percentage of non-idle cycles
system.cpu1.numCycles                              32                       # number of cpu cycles simulated
system.cpu1.numWorkItemsCompleted                   0                       # number of work items this cpu completed
system.cpu1.numWorkItemsStarted                     0                       # number of work items this cpu started
system.cpu1.num_busy_cycles                        32                       # Number of busy cycles
system.cpu1.num_cc_register_reads                  13                       # number of times the CC registers were read
system.cpu1.num_cc_register_writes                 16                       # number of times the CC registers were written
system.cpu1.num_conditional_control_insts            2                       # number of instructions that are conditional controls
system.cpu1.num_fp_alu_accesses                     0                       # Number of float alu accesses
system.cpu1.num_fp_insts                            0                       # number of float instructions
system.cpu1.num_fp_register_reads                   0                       # number of times the floating registers were read
system.cpu1.num_fp_register_writes                  0                       # number of times the floating registers were written
system.cpu1.num_func_calls                          0                       # number of times a function call or return occured
system.cpu1.num_idle_cycles                         0                       # Number of idle cycles
system.cpu1.num_int_alu_accesses                   23                       # Number of integer alu accesses
system.cpu1.num_int_insts                          23                       # number of integer instructions
system.cpu1.num_int_register_reads                 50                       # number of times the integer registers were read
system.cpu1.num_int_register_writes                20                       # number of times the integer registers were written
system.cpu1.num_load_insts                          3                       # Number of load instructions
system.cpu1.num_mem_refs                            4                       # number of memory refs
system.cpu1.num_store_insts                         1                       # Number of store instructions
system.cpu1.num_vec_alu_accesses                    0                       # Number of vector alu accesses
system.cpu1.num_vec_insts                           0                       # number of vector instructions
system.cpu1.num_vec_register_reads                  0                       # number of times the vector registers were read
system.cpu1.num_vec_register_writes                 0                       # number of times the vector registers were written
system.cpu1.op_class::No_OpClass                    0      0.00%      0.00% # Class of executed instruction
system.cpu1.op_class::IntAlu                       19     82.61%     82.61% # Class of executed instruction
system.cpu1.op_class::IntMult                       0      0.00%     82.61% # Class of executed instruction
system.cpu1.op_class::IntDiv                        0      0.00%     82.61% # Class of executed instruction
system.cpu1.op_class::FloatAdd                      0      0.00%     82.61% # Class of executed instruction
system.cpu1.op_class::FloatCmp                      0      0.00%     82.61% # Class of executed instruction
system.cpu1.op_class::FloatCvt                      0      0.00%     82.61% # Class of executed instruction
system.cpu1.op_class::FloatMult                     0      0.00%     82.61% # Class of executed instruction
system.cpu1.op_class::FloatMultAcc                  0      0.00%     82.61% # Class of executed instruction
system.cpu1.op_class::FloatDiv                      0      0.00%     82.61% # Class of executed instruction
system.cpu1.op_class::FloatMisc                     0      0.00%     82.61% # Class of executed instruction
system.cpu1.op_class::FloatSqrt                     0      0.00%     82.61% # Class of executed instruction
system.cpu1.op_class::SimdAdd                       0      0.00%     82.61% # Class of executed instruction
system.cpu1.op_class::SimdAddAcc                    0      0.00%     82.61% # Class of executed instruction
system.cpu1.op_class::SimdAlu                       0      0.00%     82.61% # Class of executed instruction
system.cpu1.op_class::SimdCmp                       0      0.00%     82.61% # Class of executed instruction
system.cpu1.op_class::SimdCvt                       0      0.00%     82.61% # Class of executed instruction
system.cpu1.op_class::SimdMisc                      0      0.00%     82.61% # Class of executed instruction
system.cpu1.op_class::SimdMult                      0      0.00%     82.61% # Class of executed instruction
system.cpu1.op_class::SimdMultAcc                   0      0.00%     82.61% # Class of executed instruction
system.cpu1.op_class::SimdShift                     0      0.00%     82.61% # Class of executed instruction
system.cpu1.op_class::SimdShiftAcc                  0      0.00%     82.61% # Class of executed instruction
system.cpu1.op_class::SimdDiv                       0      0.00%     82.61% # Class of executed instruction
system.cpu1.op_class::SimdSqrt                      0      0.00%     82.61% # Class of executed instruction
system.cpu1.op_class::SimdFloatAdd                  0      0.00%     82.61% # Class of executed instruction
system.cpu1.op_class::SimdFloatAlu                  0      0.00%     82.61% # Class of executed instruction
system.cpu1.op_class::SimdFloatCmp                  0      0.00%     82.61% # Class of executed instruction
system.cpu1.op_class::SimdFloatCvt                  0      0.00%     82.61% # Class of executed instruction
system.cpu1.op_class::SimdFloatDiv                  0      0.00%     82.61% # Class of executed instruction
system.cpu1.op_class::SimdFloatMisc                 0      0.00%     82.61% # Class of executed instruction
system.cpu1.op_class::SimdFloatMult                 0      0.00%     82.61% # Class of executed instruction
system.cpu1.op_class::SimdFloatMultAcc              0      0.00%     82.61% # Class of executed instruction
system.cpu1.op_class::SimdFloatSqrt                 0      0.00%     82.61% # Class of executed instruction
system.cpu1.op_class::SimdReduceAdd                 0      0.00%     82.61% # Class of executed instruction
system.cpu1.op_class::SimdReduceAlu                 0      0.00%     82.61% # Class of executed instruction
system.cpu1.op_class::SimdReduceCmp                 0      0.00%     82.61% # Class of executed instruction
system.cpu1.op_class::SimdFloatReduceAdd            0      0.00%     82.61% # Class of executed instruction
system.cpu1.op_class::SimdFloatReduceCmp            0      0.00%     82.61% # Class of executed instruction
system.cpu1.op_class::SimdAes                       0      0.00%     82.61% # Class of executed instruction
system.cpu1.op_class::SimdAesMix                    0      0.00%     82.61% # Class of executed instruction
system.cpu1.op_class::SimdSha1Hash                  0      0.00%     82.61% # Class of executed instruction
system.cpu1.op_class::SimdSha1Hash2                 0      0.00%     82.61% # Class of executed instruction
system.cpu1.op_class::SimdSha256Hash                0      0.00%     82.61% # Class of executed instruction
system.cpu1.op_class::SimdSha256Hash2               0      0.00%     82.61% # Class of executed instruction
system.cpu1.op_class::SimdShaSigma2                 0      0.00%     82.61% # Class of executed instruction
system.cpu1.op_class::SimdShaSigma3                 0      0.00%     82.61% # Class of executed instruction
system.cpu1.op_class::SimdPredAlu                   0      0.00%     82.61% # Class of executed instruction
system.cpu1.op_class::MemRead                       3     13.04%     95.65% # Class of executed instruction
system.cpu1.op_class::MemWrite                      1      4.35%    100.00% # Class of executed instruction
system.cpu1.op_class::FloatMemRead                  0      0.00%    100.00% # Class of executed instruction
system.cpu1.op_class::FloatMemWrite                 0      0.00%    100.00% # Class of executed instruction
system.cpu1.op_class::IprAccess                     0      0.00%    100.00% # Class of executed instruction
system.cpu1.op_class::InstPrefetch                  0      0.00%    100.00% # Class of executed instruction
system.cpu1.op_class::total                        23                       # Class of executed instruction
system.cpu1.workload.numSyscalls                    0                       # Number of system calls
system.cpu2.Branches                                2                       # Number of branches fetched
system.cpu2.committedInsts                         17                       # Number of instructions committed
system.cpu2.committedOps                           23                       # Number of ops (including micro ops) committed
system.cpu2.idle_fraction                           0                       # Percentage of idle cycles
system.cpu2.l2bus.snoop_filter.hit_multi_requests         1160                       # Number of requests hitting in the snoop filter with multiple (>1) holders of the requested data.
system.cpu2.l2bus.snoop_filter.hit_multi_snoops            0                       # Number of snoops hitting in the snoop filter with multiple (>1) holders of the requested data.
system.cpu2.l2bus.snoop_filter.hit_single_requests       543860                       # Number of requests hitting in the snoop filter with a single holder of the requested data.
system.cpu2.l2bus.snoop_filter.hit_single_snoops         4719                       # Number of snoops hitting in the snoop filter with a single holder of the requested data.
system.cpu2.l2bus.snoop_filter.tot_requests      1088008                       # Total number of requests made to the snoop filter.
system.cpu2.l2bus.snoop_filter.tot_snoops         4719                       # Total number of snoops made to the snoop filter.
system.cpu2.mmucache.mmubus.snoop_filter.hit_multi_requests            0                       # Number of requests hitting in the snoop filter with multiple (>1) holders of the requested data.
system.cpu2.mmucache.mmubus.snoop_filter.hit_multi_snoops            0                       # Number of snoops hitting in the snoop filter with multiple (>1) holders of the requested data.
system.cpu2.mmucache.mmubus.snoop_filter.hit_single_requests            0                       # Number of requests hitting in the snoop filter with a single holder of the requested data.
system.cpu2.mmucache.mmubus.snoop_filter.hit_single_snoops            0                       # Number of snoops hitting in the snoop filter with a single holder of the requested data.
system.cpu2.mmucache.mmubus.snoop_filter.tot_requests            0                       # Total number of requests made to the snoop filter.
system.cpu2.mmucache.mmubus.snoop_filter.tot_snoops            0                       # Total number of snoops made to the snoop filter.
system.cpu2.not_idle_fraction                       1                       # Percentage of non-idle cycles
system.cpu2.numCycles                              32                       # number of cpu cycles simulated
system.cpu2.numWorkItemsCompleted                   0                       # number of work items this cpu completed
system.cpu2.numWorkItemsStarted                     0                       # number of work items this cpu started
system.cpu2.num_busy_cycles                        32                       # Number of busy cycles
system.cpu2.num_cc_register_reads                  13                       # number of times the CC registers were read
system.cpu2.num_cc_register_writes                 16                       # number of times the CC registers were written
system.cpu2.num_conditional_control_insts            2                       # number of instructions that are conditional controls
system.cpu2.num_fp_alu_accesses                     0                       # Number of float alu accesses
system.cpu2.num_fp_insts                            0                       # number of float instructions
system.cpu2.num_fp_register_reads                   0                       # number of times the floating registers were read
system.cpu2.num_fp_register_writes                  0                       # number of times the floating registers were written
system.cpu2.num_func_calls                          0                       # number of times a function call or return occured
system.cpu2.num_idle_cycles                         0                       # Number of idle cycles
system.cpu2.num_int_alu_accesses                   23                       # Number of integer alu accesses
system.cpu2.num_int_insts                          23                       # number of integer instructions
system.cpu2.num_int_register_reads                 50                       # number of times the integer registers were read
system.cpu2.num_int_register_writes                20                       # number of times the integer registers were written
system.cpu2.num_load_insts                          3                       # Number of load instructions
system.cpu2.num_mem_refs                            4                       # number of memory refs
system.cpu2.num_store_insts                         1                       # Number of store instructions
system.cpu2.num_vec_alu_accesses                    0                       # Number of vector alu accesses
system.cpu2.num_vec_insts                           0                       # number of vector instructions
system.cpu2.num_vec_register_reads                  0                       # number of times the vector registers were read
system.cpu2.num_vec_register_writes                 0                       # number of times the vector registers were written
system.cpu2.op_class::No_OpClass                    0      0.00%      0.00% # Class of executed instruction
system.cpu2.op_class::IntAlu                       19     82.61%     82.61% # Class of executed instruction
system.cpu2.op_class::IntMult                       0      0.00%     82.61% # Class of executed instruction
system.cpu2.op_class::IntDiv                        0      0.00%     82.61% # Class of executed instruction
system.cpu2.op_class::FloatAdd                      0      0.00%     82.61% # Class of executed instruction
system.cpu2.op_class::FloatCmp                      0      0.00%     82.61% # Class of executed instruction
system.cpu2.op_class::FloatCvt                      0      0.00%     82.61% # Class of executed instruction
system.cpu2.op_class::FloatMult                     0      0.00%     82.61% # Class of executed instruction
system.cpu2.op_class::FloatMultAcc                  0      0.00%     82.61% # Class of executed instruction
system.cpu2.op_class::FloatDiv                      0      0.00%     82.61% # Class of executed instruction
system.cpu2.op_class::FloatMisc                     0      0.00%     82.61% # Class of executed instruction
system.cpu2.op_class::FloatSqrt                     0      0.00%     82.61% # Class of executed instruction
system.cpu2.op_class::SimdAdd                       0      0.00%     82.61% # Class of executed instruction
system.cpu2.op_class::SimdAddAcc                    0      0.00%     82.61% # Class of executed instruction
system.cpu2.op_class::SimdAlu                       0      0.00%     82.61% # Class of executed instruction
system.cpu2.op_class::SimdCmp                       0      0.00%     82.61% # Class of executed instruction
system.cpu2.op_class::SimdCvt                       0      0.00%     82.61% # Class of executed instruction
system.cpu2.op_class::SimdMisc                      0      0.00%     82.61% # Class of executed instruction
system.cpu2.op_class::SimdMult                      0      0.00%     82.61% # Class of executed instruction
system.cpu2.op_class::SimdMultAcc                   0      0.00%     82.61% # Class of executed instruction
system.cpu2.op_class::SimdShift                     0      0.00%     82.61% # Class of executed instruction
system.cpu2.op_class::SimdShiftAcc                  0      0.00%     82.61% # Class of executed instruction
system.cpu2.op_class::SimdDiv                       0      0.00%     82.61% # Class of executed instruction
system.cpu2.op_class::SimdSqrt                      0      0.00%     82.61% # Class of executed instruction
system.cpu2.op_class::SimdFloatAdd                  0      0.00%     82.61% # Class of executed instruction
system.cpu2.op_class::SimdFloatAlu                  0      0.00%     82.61% # Class of executed instruction
system.cpu2.op_class::SimdFloatCmp                  0      0.00%     82.61% # Class of executed instruction
system.cpu2.op_class::SimdFloatCvt                  0      0.00%     82.61% # Class of executed instruction
system.cpu2.op_class::SimdFloatDiv                  0      0.00%     82.61% # Class of executed instruction
system.cpu2.op_class::SimdFloatMisc                 0      0.00%     82.61% # Class of executed instruction
system.cpu2.op_class::SimdFloatMult                 0      0.00%     82.61% # Class of executed instruction
system.cpu2.op_class::SimdFloatMultAcc              0      0.00%     82.61% # Class of executed instruction
system.cpu2.op_class::SimdFloatSqrt                 0      0.00%     82.61% # Class of executed instruction
system.cpu2.op_class::SimdReduceAdd                 0      0.00%     82.61% # Class of executed instruction
system.cpu2.op_class::SimdReduceAlu                 0      0.00%     82.61% # Class of executed instruction
system.cpu2.op_class::SimdReduceCmp                 0      0.00%     82.61% # Class of executed instruction
system.cpu2.op_class::SimdFloatReduceAdd            0      0.00%     82.61% # Class of executed instruction
system.cpu2.op_class::SimdFloatReduceCmp            0      0.00%     82.61% # Class of executed instruction
system.cpu2.op_class::SimdAes                       0      0.00%     82.61% # Class of executed instruction
system.cpu2.op_class::SimdAesMix                    0      0.00%     82.61% # Class of executed instruction
system.cpu2.op_class::SimdSha1Hash                  0      0.00%     82.61% # Class of executed instruction
system.cpu2.op_class::SimdSha1Hash2                 0      0.00%     82.61% # Class of executed instruction
system.cpu2.op_class::SimdSha256Hash                0      0.00%     82.61% # Class of executed instruction
system.cpu2.op_class::SimdSha256Hash2               0      0.00%     82.61% # Class of executed instruction
system.cpu2.op_class::SimdShaSigma2                 0      0.00%     82.61% # Class of executed instruction
system.cpu2.op_class::SimdShaSigma3                 0      0.00%     82.61% # Class of executed instruction
system.cpu2.op_class::SimdPredAlu                   0      0.00%     82.61% # Class of executed instruction
system.cpu2.op_class::MemRead                       3     13.04%     95.65% # Class of executed instruction
system.cpu2.op_class::MemWrite                      1      4.35%    100.00% # Class of executed instruction
system.cpu2.op_class::FloatMemRead                  0      0.00%    100.00% # Class of executed instruction
system.cpu2.op_class::FloatMemWrite                 0      0.00%    100.00% # Class of executed instruction
system.cpu2.op_class::IprAccess                     0      0.00%    100.00% # Class of executed instruction
system.cpu2.op_class::InstPrefetch                  0      0.00%    100.00% # Class of executed instruction
system.cpu2.op_class::total                        23                       # Class of executed instruction
system.cpu2.workload.numSyscalls                    0                       # Number of system calls
system.cpu3.Branches                                2                       # Number of branches fetched
system.cpu3.committedInsts                         17                       # Number of instructions committed
system.cpu3.committedOps                           23                       # Number of ops (including micro ops) committed
system.cpu3.idle_fraction                           0                       # Percentage of idle cycles
system.cpu3.l2bus.snoop_filter.hit_multi_requests         1171                       # Number of requests hitting in the snoop filter with multiple (>1) holders of the requested data.
system.cpu3.l2bus.snoop_filter.hit_multi_snoops            0                       # Number of snoops hitting in the snoop filter with multiple (>1) holders of the requested data.
system.cpu3.l2bus.snoop_filter.hit_single_requests       543698                       # Number of requests hitting in the snoop filter with a single holder of the requested data.
system.cpu3.l2bus.snoop_filter.hit_single_snoops         2882                       # Number of snoops hitting in the snoop filter with a single holder of the requested data.
system.cpu3.l2bus.snoop_filter.tot_requests      1087800                       # Total number of requests made to the snoop filter.
system.cpu3.l2bus.snoop_filter.tot_snoops         2882                       # Total number of snoops made to the snoop filter.
system.cpu3.mmucache.mmubus.snoop_filter.hit_multi_requests            0                       # Number of requests hitting in the snoop filter with multiple (>1) holders of the requested data.
system.cpu3.mmucache.mmubus.snoop_filter.hit_multi_snoops            0                       # Number of snoops hitting in the snoop filter with multiple (>1) holders of the requested data.
system.cpu3.mmucache.mmubus.snoop_filter.hit_single_requests            0                       # Number of requests hitting in the snoop filter with a single holder of the requested data.
system.cpu3.mmucache.mmubus.snoop_filter.hit_single_snoops            0                       # Number of snoops hitting in the snoop filter with a single holder of the requested data.
system.cpu3.mmucache.mmubus.snoop_filter.tot_requests            0                       # Total number of requests made to the snoop filter.
system.cpu3.mmucache.mmubus.snoop_filter.tot_snoops            0                       # Total number of snoops made to the snoop filter.
system.cpu3.not_idle_fraction                       1                       # Percentage of non-idle cycles
system.cpu3.numCycles                              32                       # number of cpu cycles simulated
system.cpu3.numWorkItemsCompleted                   0                       # number of work items this cpu completed
system.cpu3.numWorkItemsStarted                     0                       # number of work items this cpu started
system.cpu3.num_busy_cycles                        32                       # Number of busy cycles
system.cpu3.num_cc_register_reads                  13                       # number of times the CC registers were read
system.cpu3.num_cc_register_writes                 16                       # number of times the CC registers were written
system.cpu3.num_conditional_control_insts            2                       # number of instructions that are conditional controls
system.cpu3.num_fp_alu_accesses                     0                       # Number of float alu accesses
system.cpu3.num_fp_insts                            0                       # number of float instructions
system.cpu3.num_fp_register_reads                   0                       # number of times the floating registers were read
system.cpu3.num_fp_register_writes                  0                       # number of times the floating registers were written
system.cpu3.num_func_calls                          0                       # number of times a function call or return occured
system.cpu3.num_idle_cycles                         0                       # Number of idle cycles
system.cpu3.num_int_alu_accesses                   23                       # Number of integer alu accesses
system.cpu3.num_int_insts                          23                       # number of integer instructions
system.cpu3.num_int_register_reads                 50                       # number of times the integer registers were read
system.cpu3.num_int_register_writes                20                       # number of times the integer registers were written
system.cpu3.num_load_insts                          3                       # Number of load instructions
system.cpu3.num_mem_refs                            4                       # number of memory refs
system.cpu3.num_store_insts                         1                       # Number of store instructions
system.cpu3.num_vec_alu_accesses                    0                       # Number of vector alu accesses
system.cpu3.num_vec_insts                           0                       # number of vector instructions
system.cpu3.num_vec_register_reads                  0                       # number of times the vector registers were read
system.cpu3.num_vec_register_writes                 0                       # number of times the vector registers were written
system.cpu3.op_class::No_OpClass                    0      0.00%      0.00% # Class of executed instruction
system.cpu3.op_class::IntAlu                       19     82.61%     82.61% # Class of executed instruction
system.cpu3.op_class::IntMult                       0      0.00%     82.61% # Class of executed instruction
system.cpu3.op_class::IntDiv                        0      0.00%     82.61% # Class of executed instruction
system.cpu3.op_class::FloatAdd                      0      0.00%     82.61% # Class of executed instruction
system.cpu3.op_class::FloatCmp                      0      0.00%     82.61% # Class of executed instruction
system.cpu3.op_class::FloatCvt                      0      0.00%     82.61% # Class of executed instruction
system.cpu3.op_class::FloatMult                     0      0.00%     82.61% # Class of executed instruction
system.cpu3.op_class::FloatMultAcc                  0      0.00%     82.61% # Class of executed instruction
system.cpu3.op_class::FloatDiv                      0      0.00%     82.61% # Class of executed instruction
system.cpu3.op_class::FloatMisc                     0      0.00%     82.61% # Class of executed instruction
system.cpu3.op_class::FloatSqrt                     0      0.00%     82.61% # Class of executed instruction
system.cpu3.op_class::SimdAdd                       0      0.00%     82.61% # Class of executed instruction
system.cpu3.op_class::SimdAddAcc                    0      0.00%     82.61% # Class of executed instruction
system.cpu3.op_class::SimdAlu                       0      0.00%     82.61% # Class of executed instruction
system.cpu3.op_class::SimdCmp                       0      0.00%     82.61% # Class of executed instruction
system.cpu3.op_class::SimdCvt                       0      0.00%     82.61% # Class of executed instruction
system.cpu3.op_class::SimdMisc                      0      0.00%     82.61% # Class of executed instruction
system.cpu3.op_class::SimdMult                      0      0.00%     82.61% # Class of executed instruction
system.cpu3.op_class::SimdMultAcc                   0      0.00%     82.61% # Class of executed instruction
system.cpu3.op_class::SimdShift                     0      0.00%     82.61% # Class of executed instruction
system.cpu3.op_class::SimdShiftAcc                  0      0.00%     82.61% # Class of executed instruction
system.cpu3.op_class::SimdDiv                       0      0.00%     82.61% # Class of executed instruction
system.cpu3.op_class::SimdSqrt                      0      0.00%     82.61% # Class of executed instruction
system.cpu3.op_class::SimdFloatAdd                  0      0.00%     82.61% # Class of executed instruction
system.cpu3.op_class::SimdFloatAlu                  0      0.00%     82.61% # Class of executed instruction
system.cpu3.op_class::SimdFloatCmp                  0      0.00%     82.61% # Class of executed instruction
system.cpu3.op_class::SimdFloatCvt                  0      0.00%     82.61% # Class of executed instruction
system.cpu3.op_class::SimdFloatDiv                  0      0.00%     82.61% # Class of executed instruction
system.cpu3.op_class::SimdFloatMisc                 0      0.00%     82.61% # Class of executed instruction
system.cpu3.op_class::SimdFloatMult                 0      0.00%     82.61% # Class of executed instruction
system.cpu3.op_class::SimdFloatMultAcc              0      0.00%     82.61% # Class of executed instruction
system.cpu3.op_class::SimdFloatSqrt                 0      0.00%     82.61% # Class of executed instruction
system.cpu3.op_class::SimdReduceAdd                 0      0.00%     82.61% # Class of executed instruction
system.cpu3.op_class::SimdReduceAlu                 0      0.00%     82.61% # Class of executed instruction
system.cpu3.op_class::SimdReduceCmp                 0      0.00%     82.61% # Class of executed instruction
system.cpu3.op_class::SimdFloatReduceAdd            0      0.00%     82.61% # Class of executed instruction
system.cpu3.op_class::SimdFloatReduceCmp            0      0.00%     82.61% # Class of executed instruction
system.cpu3.op_class::SimdAes                       0      0.00%     82.61% # Class of executed instruction
system.cpu3.op_class::SimdAesMix                    0      0.00%     82.61% # Class of executed instruction
system.cpu3.op_class::SimdSha1Hash                  0      0.00%     82.61% # Class of executed instruction
system.cpu3.op_class::SimdSha1Hash2                 0      0.00%     82.61% # Class of executed instruction
system.cpu3.op_class::SimdSha256Hash                0      0.00%     82.61% # Class of executed instruction
system.cpu3.op_class::SimdSha256Hash2               0      0.00%     82.61% # Class of executed instruction
system.cpu3.op_class::SimdShaSigma2                 0      0.00%     82.61% # Class of executed instruction
system.cpu3.op_class::SimdShaSigma3                 0      0.00%     82.61% # Class of executed instruction
system.cpu3.op_class::SimdPredAlu                   0      0.00%     82.61% # Class of executed instruction
system.cpu3.op_class::MemRead                       3     13.04%     95.65% # Class of executed instruction
system.cpu3.op_class::MemWrite                      1      4.35%    100.00% # Class of executed instruction
system.cpu3.op_class::FloatMemRead                  0      0.00%    100.00% # Class of executed instruction
system.cpu3.op_class::FloatMemWrite                 0      0.00%    100.00% # Class of executed instruction
system.cpu3.op_class::IprAccess                     0      0.00%    100.00% # Class of executed instruction
system.cpu3.op_class::InstPrefetch                  0      0.00%    100.00% # Class of executed instruction
system.cpu3.op_class::total                        23                       # Class of executed instruction
system.cpu3.workload.numSyscalls                    0                       # Number of system calls
system.l3bus.snoop_filter.hit_multi_requests            0                       # Number of requests hitting in the snoop filter with multiple (>1) holders of the requested data.
system.l3bus.snoop_filter.hit_multi_snoops            0                       # Number of snoops hitting in the snoop filter with multiple (>1) holders of the requested data.
system.l3bus.snoop_filter.hit_single_requests       338209                       # Number of requests hitting in the snoop filter with a single holder of the requested data.
system.l3bus.snoop_filter.hit_single_snoops            0                       # Number of snoops hitting in the snoop filter with a single holder of the requested data.
system.l3bus.snoop_filter.tot_requests         689472                       # Total number of requests made to the snoop filter.
system.l3bus.snoop_filter.tot_snoops                0                       # Total number of snoops made to the snoop filter.
system.membus.snoop_filter.hit_multi_requests            0                       # Number of requests hitting in the snoop filter with multiple (>1) holders of the requested data.
system.membus.snoop_filter.hit_multi_snoops            0                       # Number of snoops hitting in the snoop filter with multiple (>1) holders of the requested data.
system.membus.snoop_filter.hit_single_requests       230495                       # Number of requests hitting in the snoop filter with a single holder of the requested data.
system.membus.snoop_filter.hit_single_snoops            0                       # Number of snoops hitting in the snoop filter with a single holder of the requested data.
system.membus.snoop_filter.tot_requests        539260                       # Total number of requests made to the snoop filter.
system.membus.snoop_filter.tot_snoops               0                       # Total number of snoops made to the snoop filter.
system.switch_cpus0.cc_regfile_reads        223589341                       # number of cc regfile reads
system.switch_cpus0.cc_regfile_writes       199528259                       # number of cc regfile writes
system.switch_cpus0.committedInsts          249962884                       # Number of Instructions Simulated
system.switch_cpus0.committedOps            404076378                       # Number of Ops (including micro ops) Simulated
system.switch_cpus0.cpi                      0.734452                       # CPI: Cycles Per Instruction
system.switch_cpus0.cpi_total                0.734452                       # CPI: Total CPI of All Threads
system.switch_cpus0.fp_regfile_reads           230325                       # number of floating regfile reads
system.switch_cpus0.fp_regfile_writes          230433                       # number of floating regfile writes
system.switch_cpus0.idleCycles                 125075                       # Total number of cycles that the CPU has spent unscheduled due to idling
system.switch_cpus0.iew.branchMispredicts      3350577                       # Number of branch mispredicts detected at execute
system.switch_cpus0.iew.exec_branches        44003118                       # Number of branches executed
system.switch_cpus0.iew.exec_nop                    0                       # number of nop insts executed
system.switch_cpus0.iew.exec_rate            2.789377                       # Inst execution rate
system.switch_cpus0.iew.exec_refs           118409122                       # number of memory reference insts executed
system.switch_cpus0.iew.exec_stores          36230791                       # Number of stores executed
system.switch_cpus0.iew.exec_swp                    0                       # number of swp insts executed
system.switch_cpus0.iew.iewBlockCycles       26319657                       # Number of cycles IEW is blocking
system.switch_cpus0.iew.iewDispLoadInsts     94532247                       # Number of dispatched load instructions
system.switch_cpus0.iew.iewDispNonSpecInsts            0                       # Number of dispatched non-speculative instructions
system.switch_cpus0.iew.iewDispSquashedInsts        84949                       # Number of squashed instructions skipped by dispatch
system.switch_cpus0.iew.iewDispStoreInsts     43396510                       # Number of dispatched store instructions
system.switch_cpus0.iew.iewDispatchedInsts    603608330                       # Number of instructions dispatched to IQ
system.switch_cpus0.iew.iewExecLoadInsts     82178331                       # Number of load instructions executed
system.switch_cpus0.iew.iewExecSquashedInsts      6767584                       # Number of squashed instructions skipped in execute
system.switch_cpus0.iew.iewExecutedInsts    512089869                       # Number of executed instructions
system.switch_cpus0.iew.iewIQFullEvents         46596                       # Number of times the IQ has become full, causing a stall
system.switch_cpus0.iew.iewIdleCycles               0                       # Number of cycles IEW is idle
system.switch_cpus0.iew.iewLSQFullEvents        50511                       # Number of times the LSQ has become full, causing a stall
system.switch_cpus0.iew.iewSquashCycles       3013293                       # Number of cycles IEW is squashing
system.switch_cpus0.iew.iewUnblockCycles       111160                       # Number of cycles IEW is unblocking
system.switch_cpus0.iew.memOrderViolationEvents       109240                       # Number of memory order violations
system.switch_cpus0.iew.predictedNotTakenIncorrect      1669233                       # Number of branches that were predicted not taken incorrectly
system.switch_cpus0.iew.predictedTakenIncorrect      1681344                       # Number of branches that were predicted taken incorrectly
system.switch_cpus0.iew.wb_consumers        664488358                       # num instructions consuming a value
system.switch_cpus0.iew.wb_count            509787061                       # cumulative count of insts written-back
system.switch_cpus0.iew.wb_fanout            0.583363                       # average fanout of values written-back
system.switch_cpus0.iew.wb_producers        387638179                       # num instructions producing a value
system.switch_cpus0.iew.wb_rate              2.776833                       # insts written-back per cycle
system.switch_cpus0.iew.wb_sent             511403420                       # cumulative count of insts sent to commit
system.switch_cpus0.int_regfile_reads       795681993                       # number of integer regfile reads
system.switch_cpus0.int_regfile_writes      434560404                       # number of integer regfile writes
system.switch_cpus0.ipc                      1.361559                       # IPC: Instructions Per Cycle
system.switch_cpus0.ipc_total                1.361559                       # IPC: Total IPC of All Threads
system.switch_cpus0.iq.FU_type_0::No_OpClass      1318930      0.25%      0.25% # Type of FU issued
system.switch_cpus0.iq.FU_type_0::IntAlu    392238844     75.60%     75.85% # Type of FU issued
system.switch_cpus0.iq.FU_type_0::IntMult      3432970      0.66%     76.51% # Type of FU issued
system.switch_cpus0.iq.FU_type_0::IntDiv       893637      0.17%     76.68% # Type of FU issued
system.switch_cpus0.iq.FU_type_0::FloatAdd            0      0.00%     76.68% # Type of FU issued
system.switch_cpus0.iq.FU_type_0::FloatCmp            0      0.00%     76.68% # Type of FU issued
system.switch_cpus0.iq.FU_type_0::FloatCvt            0      0.00%     76.68% # Type of FU issued
system.switch_cpus0.iq.FU_type_0::FloatMult            0      0.00%     76.68% # Type of FU issued
system.switch_cpus0.iq.FU_type_0::FloatMultAcc            0      0.00%     76.68% # Type of FU issued
system.switch_cpus0.iq.FU_type_0::FloatDiv            0      0.00%     76.68% # Type of FU issued
system.switch_cpus0.iq.FU_type_0::FloatMisc            0      0.00%     76.68% # Type of FU issued
system.switch_cpus0.iq.FU_type_0::FloatSqrt            0      0.00%     76.68% # Type of FU issued
system.switch_cpus0.iq.FU_type_0::SimdAdd            0      0.00%     76.68% # Type of FU issued
system.switch_cpus0.iq.FU_type_0::SimdAddAcc            0      0.00%     76.68% # Type of FU issued
system.switch_cpus0.iq.FU_type_0::SimdAlu            0      0.00%     76.68% # Type of FU issued
system.switch_cpus0.iq.FU_type_0::SimdCmp            0      0.00%     76.68% # Type of FU issued
system.switch_cpus0.iq.FU_type_0::SimdCvt            0      0.00%     76.68% # Type of FU issued
system.switch_cpus0.iq.FU_type_0::SimdMisc            0      0.00%     76.68% # Type of FU issued
system.switch_cpus0.iq.FU_type_0::SimdMult            0      0.00%     76.68% # Type of FU issued
system.switch_cpus0.iq.FU_type_0::SimdMultAcc            0      0.00%     76.68% # Type of FU issued
system.switch_cpus0.iq.FU_type_0::SimdShift            0      0.00%     76.68% # Type of FU issued
system.switch_cpus0.iq.FU_type_0::SimdShiftAcc            0      0.00%     76.68% # Type of FU issued
system.switch_cpus0.iq.FU_type_0::SimdDiv            0      0.00%     76.68% # Type of FU issued
system.switch_cpus0.iq.FU_type_0::SimdSqrt            0      0.00%     76.68% # Type of FU issued
system.switch_cpus0.iq.FU_type_0::SimdFloatAdd            0      0.00%     76.68% # Type of FU issued
system.switch_cpus0.iq.FU_type_0::SimdFloatAlu            0      0.00%     76.68% # Type of FU issued
system.switch_cpus0.iq.FU_type_0::SimdFloatCmp            0      0.00%     76.68% # Type of FU issued
system.switch_cpus0.iq.FU_type_0::SimdFloatCvt            0      0.00%     76.68% # Type of FU issued
system.switch_cpus0.iq.FU_type_0::SimdFloatDiv            0      0.00%     76.68% # Type of FU issued
system.switch_cpus0.iq.FU_type_0::SimdFloatMisc            0      0.00%     76.68% # Type of FU issued
system.switch_cpus0.iq.FU_type_0::SimdFloatMult            0      0.00%     76.68% # Type of FU issued
system.switch_cpus0.iq.FU_type_0::SimdFloatMultAcc            0      0.00%     76.68% # Type of FU issued
system.switch_cpus0.iq.FU_type_0::SimdFloatSqrt            0      0.00%     76.68% # Type of FU issued
system.switch_cpus0.iq.FU_type_0::SimdReduceAdd            0      0.00%     76.68% # Type of FU issued
system.switch_cpus0.iq.FU_type_0::SimdReduceAlu            0      0.00%     76.68% # Type of FU issued
system.switch_cpus0.iq.FU_type_0::SimdReduceCmp            0      0.00%     76.68% # Type of FU issued
system.switch_cpus0.iq.FU_type_0::SimdFloatReduceAdd            0      0.00%     76.68% # Type of FU issued
system.switch_cpus0.iq.FU_type_0::SimdFloatReduceCmp            0      0.00%     76.68% # Type of FU issued
system.switch_cpus0.iq.FU_type_0::SimdAes            0      0.00%     76.68% # Type of FU issued
system.switch_cpus0.iq.FU_type_0::SimdAesMix            0      0.00%     76.68% # Type of FU issued
system.switch_cpus0.iq.FU_type_0::SimdSha1Hash            0      0.00%     76.68% # Type of FU issued
system.switch_cpus0.iq.FU_type_0::SimdSha1Hash2            0      0.00%     76.68% # Type of FU issued
system.switch_cpus0.iq.FU_type_0::SimdSha256Hash            0      0.00%     76.68% # Type of FU issued
system.switch_cpus0.iq.FU_type_0::SimdSha256Hash2            0      0.00%     76.68% # Type of FU issued
system.switch_cpus0.iq.FU_type_0::SimdShaSigma2            0      0.00%     76.68% # Type of FU issued
system.switch_cpus0.iq.FU_type_0::SimdShaSigma3            0      0.00%     76.68% # Type of FU issued
system.switch_cpus0.iq.FU_type_0::SimdPredAlu            0      0.00%     76.68% # Type of FU issued
system.switch_cpus0.iq.FU_type_0::MemRead     83687126     16.13%     92.81% # Type of FU issued
system.switch_cpus0.iq.FU_type_0::MemWrite     36825153      7.10%     99.91% # Type of FU issued
system.switch_cpus0.iq.FU_type_0::FloatMemRead       230448      0.04%     99.96% # Type of FU issued
system.switch_cpus0.iq.FU_type_0::FloatMemWrite       230349      0.04%    100.00% # Type of FU issued
system.switch_cpus0.iq.FU_type_0::IprAccess            0      0.00%    100.00% # Type of FU issued
system.switch_cpus0.iq.FU_type_0::InstPrefetch            0      0.00%    100.00% # Type of FU issued
system.switch_cpus0.iq.FU_type_0::total     518857457                       # Type of FU issued
system.switch_cpus0.iq.fp_alu_accesses         460797                       # Number of floating point alu accesses
system.switch_cpus0.iq.fp_inst_queue_reads       921594                       # Number of floating instruction queue reads
system.switch_cpus0.iq.fp_inst_queue_wakeup_accesses       460674                       # Number of floating instruction queue wakeup accesses
system.switch_cpus0.iq.fp_inst_queue_writes       820554                       # Number of floating instruction queue writes
system.switch_cpus0.iq.fu_busy_cnt           10919837                       # FU busy when requested
system.switch_cpus0.iq.fu_busy_rate          0.021046                       # FU busy rate (busy events/executed inst)
system.switch_cpus0.iq.fu_full::No_OpClass            0      0.00%      0.00% # attempts to use FU when none available
system.switch_cpus0.iq.fu_full::IntAlu        7544367     69.09%     69.09% # attempts to use FU when none available
system.switch_cpus0.iq.fu_full::IntMult             0      0.00%     69.09% # attempts to use FU when none available
system.switch_cpus0.iq.fu_full::IntDiv              0      0.00%     69.09% # attempts to use FU when none available
system.switch_cpus0.iq.fu_full::FloatAdd            0      0.00%     69.09% # attempts to use FU when none available
system.switch_cpus0.iq.fu_full::FloatCmp            0      0.00%     69.09% # attempts to use FU when none available
system.switch_cpus0.iq.fu_full::FloatCvt            0      0.00%     69.09% # attempts to use FU when none available
system.switch_cpus0.iq.fu_full::FloatMult            0      0.00%     69.09% # attempts to use FU when none available
system.switch_cpus0.iq.fu_full::FloatMultAcc            0      0.00%     69.09% # attempts to use FU when none available
system.switch_cpus0.iq.fu_full::FloatDiv            0      0.00%     69.09% # attempts to use FU when none available
system.switch_cpus0.iq.fu_full::FloatMisc            0      0.00%     69.09% # attempts to use FU when none available
system.switch_cpus0.iq.fu_full::FloatSqrt            0      0.00%     69.09% # attempts to use FU when none available
system.switch_cpus0.iq.fu_full::SimdAdd             0      0.00%     69.09% # attempts to use FU when none available
system.switch_cpus0.iq.fu_full::SimdAddAcc            0      0.00%     69.09% # attempts to use FU when none available
system.switch_cpus0.iq.fu_full::SimdAlu             0      0.00%     69.09% # attempts to use FU when none available
system.switch_cpus0.iq.fu_full::SimdCmp             0      0.00%     69.09% # attempts to use FU when none available
system.switch_cpus0.iq.fu_full::SimdCvt             0      0.00%     69.09% # attempts to use FU when none available
system.switch_cpus0.iq.fu_full::SimdMisc            0      0.00%     69.09% # attempts to use FU when none available
system.switch_cpus0.iq.fu_full::SimdMult            0      0.00%     69.09% # attempts to use FU when none available
system.switch_cpus0.iq.fu_full::SimdMultAcc            0      0.00%     69.09% # attempts to use FU when none available
system.switch_cpus0.iq.fu_full::SimdShift            0      0.00%     69.09% # attempts to use FU when none available
system.switch_cpus0.iq.fu_full::SimdShiftAcc            0      0.00%     69.09% # attempts to use FU when none available
system.switch_cpus0.iq.fu_full::SimdDiv             0      0.00%     69.09% # attempts to use FU when none available
system.switch_cpus0.iq.fu_full::SimdSqrt            0      0.00%     69.09% # attempts to use FU when none available
system.switch_cpus0.iq.fu_full::SimdFloatAdd            0      0.00%     69.09% # attempts to use FU when none available
system.switch_cpus0.iq.fu_full::SimdFloatAlu            0      0.00%     69.09% # attempts to use FU when none available
system.switch_cpus0.iq.fu_full::SimdFloatCmp            0      0.00%     69.09% # attempts to use FU when none available
system.switch_cpus0.iq.fu_full::SimdFloatCvt            0      0.00%     69.09% # attempts to use FU when none available
system.switch_cpus0.iq.fu_full::SimdFloatDiv            0      0.00%     69.09% # attempts to use FU when none available
system.switch_cpus0.iq.fu_full::SimdFloatMisc            0      0.00%     69.09% # attempts to use FU when none available
system.switch_cpus0.iq.fu_full::SimdFloatMult            0      0.00%     69.09% # attempts to use FU when none available
system.switch_cpus0.iq.fu_full::SimdFloatMultAcc            0      0.00%     69.09% # attempts to use FU when none available
system.switch_cpus0.iq.fu_full::SimdFloatSqrt            0      0.00%     69.09% # attempts to use FU when none available
system.switch_cpus0.iq.fu_full::SimdReduceAdd            0      0.00%     69.09% # attempts to use FU when none available
system.switch_cpus0.iq.fu_full::SimdReduceAlu            0      0.00%     69.09% # attempts to use FU when none available
system.switch_cpus0.iq.fu_full::SimdReduceCmp            0      0.00%     69.09% # attempts to use FU when none available
system.switch_cpus0.iq.fu_full::SimdFloatReduceAdd            0      0.00%     69.09% # attempts to use FU when none available
system.switch_cpus0.iq.fu_full::SimdFloatReduceCmp            0      0.00%     69.09% # attempts to use FU when none available
system.switch_cpus0.iq.fu_full::SimdAes             0      0.00%     69.09% # attempts to use FU when none available
system.switch_cpus0.iq.fu_full::SimdAesMix            0      0.00%     69.09% # attempts to use FU when none available
system.switch_cpus0.iq.fu_full::SimdSha1Hash            0      0.00%     69.09% # attempts to use FU when none available
system.switch_cpus0.iq.fu_full::SimdSha1Hash2            0      0.00%     69.09% # attempts to use FU when none available
system.switch_cpus0.iq.fu_full::SimdSha256Hash            0      0.00%     69.09% # attempts to use FU when none available
system.switch_cpus0.iq.fu_full::SimdSha256Hash2            0      0.00%     69.09% # attempts to use FU when none available
system.switch_cpus0.iq.fu_full::SimdShaSigma2            0      0.00%     69.09% # attempts to use FU when none available
system.switch_cpus0.iq.fu_full::SimdShaSigma3            0      0.00%     69.09% # attempts to use FU when none available
system.switch_cpus0.iq.fu_full::SimdPredAlu            0      0.00%     69.09% # attempts to use FU when none available
system.switch_cpus0.iq.fu_full::MemRead       2428735     22.24%     91.33% # attempts to use FU when none available
system.switch_cpus0.iq.fu_full::MemWrite       946735      8.67%    100.00% # attempts to use FU when none available
system.switch_cpus0.iq.fu_full::FloatMemRead            0      0.00%    100.00% # attempts to use FU when none available
system.switch_cpus0.iq.fu_full::FloatMemWrite            0      0.00%    100.00% # attempts to use FU when none available
system.switch_cpus0.iq.fu_full::IprAccess            0      0.00%    100.00% # attempts to use FU when none available
system.switch_cpus0.iq.fu_full::InstPrefetch            0      0.00%    100.00% # attempts to use FU when none available
system.switch_cpus0.iq.int_alu_accesses     527997567                       # Number of integer alu accesses
system.switch_cpus0.iq.int_inst_queue_reads   1232576831                       # Number of integer instruction queue reads
system.switch_cpus0.iq.int_inst_queue_wakeup_accesses    509326387                       # Number of integer instruction queue wakeup accesses
system.switch_cpus0.iq.int_inst_queue_writes    802424375                       # Number of integer instruction queue writes
system.switch_cpus0.iq.iqInstsAdded         603608330                       # Number of instructions added to the IQ (excludes non-spec)
system.switch_cpus0.iq.iqInstsIssued        518857457                       # Number of instructions issued
system.switch_cpus0.iq.iqSquashedInstsExamined    199531833                       # Number of squashed instructions iterated over during squash; mainly for profiling
system.switch_cpus0.iq.iqSquashedInstsIssued      1402973                       # Number of squashed instructions issued
system.switch_cpus0.iq.iqSquashedOperandsExamined    306433904                       # Number of squashed operands that are examined and possibly removed from graph
system.switch_cpus0.iq.issued_per_cycle::samples    183460705                       # Number of insts issued each cycle
system.switch_cpus0.iq.issued_per_cycle::mean     2.828167                       # Number of insts issued each cycle
system.switch_cpus0.iq.issued_per_cycle::stdev     2.557002                       # Number of insts issued each cycle
system.switch_cpus0.iq.issued_per_cycle::underflows            0      0.00%      0.00% # Number of insts issued each cycle
system.switch_cpus0.iq.issued_per_cycle::0     55638792     30.33%     30.33% # Number of insts issued each cycle
system.switch_cpus0.iq.issued_per_cycle::1     16006662      8.72%     39.05% # Number of insts issued each cycle
system.switch_cpus0.iq.issued_per_cycle::2     19946281     10.87%     49.92% # Number of insts issued each cycle
system.switch_cpus0.iq.issued_per_cycle::3     20318505     11.08%     61.00% # Number of insts issued each cycle
system.switch_cpus0.iq.issued_per_cycle::4     19485733     10.62%     71.62% # Number of insts issued each cycle
system.switch_cpus0.iq.issued_per_cycle::5     16538946      9.01%     80.64% # Number of insts issued each cycle
system.switch_cpus0.iq.issued_per_cycle::6     15996781      8.72%     89.36% # Number of insts issued each cycle
system.switch_cpus0.iq.issued_per_cycle::7     10847670      5.91%     95.27% # Number of insts issued each cycle
system.switch_cpus0.iq.issued_per_cycle::8      8681335      4.73%    100.00% # Number of insts issued each cycle
system.switch_cpus0.iq.issued_per_cycle::overflows            0      0.00%    100.00% # Number of insts issued each cycle
system.switch_cpus0.iq.issued_per_cycle::min_value            0                       # Number of insts issued each cycle
system.switch_cpus0.iq.issued_per_cycle::max_value            8                       # Number of insts issued each cycle
system.switch_cpus0.iq.issued_per_cycle::total    183460705                       # Number of insts issued each cycle
system.switch_cpus0.iq.rate                  2.826240                       # Inst issue rate
system.switch_cpus0.iq.vec_alu_accesses             0                       # Number of vector alu accesses
system.switch_cpus0.iq.vec_inst_queue_reads            0                       # Number of vector instruction queue reads
system.switch_cpus0.iq.vec_inst_queue_wakeup_accesses            0                       # Number of vector instruction queue wakeup accesses
system.switch_cpus0.iq.vec_inst_queue_writes            0                       # Number of vector instruction queue writes
system.switch_cpus0.memDep0.conflictingLoads     14952622                       # Number of conflicting loads.
system.switch_cpus0.memDep0.conflictingStores      6583524                       # Number of conflicting stores.
system.switch_cpus0.memDep0.insertedLoads     94532247                       # Number of loads inserted to the mem dependence unit.
system.switch_cpus0.memDep0.insertedStores     43396510                       # Number of stores inserted to the mem dependence unit.
system.switch_cpus0.misc_regfile_reads      222484569                       # number of misc regfile reads
system.switch_cpus0.misc_regfile_writes             1                       # number of misc regfile writes
system.switch_cpus0.numCycles               183585780                       # number of cpu cycles simulated
system.switch_cpus0.numWorkItemsCompleted            0                       # number of work items this cpu completed
system.switch_cpus0.numWorkItemsStarted             0                       # number of work items this cpu started
system.switch_cpus0.timesIdled                   3440                       # Number of times that the entire CPU went into an idle state and unscheduled itself
system.switch_cpus1.cc_regfile_reads        223589452                       # number of cc regfile reads
system.switch_cpus1.cc_regfile_writes       199530427                       # number of cc regfile writes
system.switch_cpus1.committedInsts          249962923                       # Number of Instructions Simulated
system.switch_cpus1.committedOps            404076444                       # Number of Ops (including micro ops) Simulated
system.switch_cpus1.cpi                      0.734452                       # CPI: Cycles Per Instruction
system.switch_cpus1.cpi_total                0.734452                       # CPI: Total CPI of All Threads
system.switch_cpus1.fp_regfile_reads           230332                       # number of floating regfile reads
system.switch_cpus1.fp_regfile_writes          230439                       # number of floating regfile writes
system.switch_cpus1.idleCycles                 123344                       # Total number of cycles that the CPU has spent unscheduled due to idling
system.switch_cpus1.iew.branchMispredicts      3350582                       # Number of branch mispredicts detected at execute
system.switch_cpus1.iew.exec_branches        44008446                       # Number of branches executed
system.switch_cpus1.iew.exec_nop                    0                       # number of nop insts executed
system.switch_cpus1.iew.exec_rate            2.789632                       # Inst execution rate
system.switch_cpus1.iew.exec_refs           118428882                       # number of memory reference insts executed
system.switch_cpus1.iew.exec_stores          36233565                       # Number of stores executed
system.switch_cpus1.iew.exec_swp                    0                       # number of swp insts executed
system.switch_cpus1.iew.iewBlockCycles       26337020                       # Number of cycles IEW is blocking
system.switch_cpus1.iew.iewDispLoadInsts     94545012                       # Number of dispatched load instructions
system.switch_cpus1.iew.iewDispNonSpecInsts            0                       # Number of dispatched non-speculative instructions
system.switch_cpus1.iew.iewDispSquashedInsts        85136                       # Number of squashed instructions skipped by dispatch
system.switch_cpus1.iew.iewDispStoreInsts     43403437                       # Number of dispatched store instructions
system.switch_cpus1.iew.iewDispatchedInsts    603685813                       # Number of instructions dispatched to IQ
system.switch_cpus1.iew.iewExecLoadInsts     82195317                       # Number of load instructions executed
system.switch_cpus1.iew.iewExecSquashedInsts      6770227                       # Number of squashed instructions skipped in execute
system.switch_cpus1.iew.iewExecutedInsts    512136821                       # Number of executed instructions
system.switch_cpus1.iew.iewIQFullEvents         46668                       # Number of times the IQ has become full, causing a stall
system.switch_cpus1.iew.iewIdleCycles               0                       # Number of cycles IEW is idle
system.switch_cpus1.iew.iewLSQFullEvents        46451                       # Number of times the LSQ has become full, causing a stall
system.switch_cpus1.iew.iewSquashCycles       3013922                       # Number of cycles IEW is squashing
system.switch_cpus1.iew.iewUnblockCycles       107123                       # Number of cycles IEW is unblocking
system.switch_cpus1.iew.memOrderViolationEvents       110029                       # Number of memory order violations
system.switch_cpus1.iew.predictedNotTakenIncorrect      1669260                       # Number of branches that were predicted not taken incorrectly
system.switch_cpus1.iew.predictedTakenIncorrect      1681322                       # Number of branches that were predicted taken incorrectly
system.switch_cpus1.iew.wb_consumers        664520901                       # num instructions consuming a value
system.switch_cpus1.iew.wb_count            509831167                       # cumulative count of insts written-back
system.switch_cpus1.iew.wb_fanout            0.583380                       # average fanout of values written-back
system.switch_cpus1.iew.wb_producers        387668449                       # num instructions producing a value
system.switch_cpus1.iew.wb_rate              2.777073                       # insts written-back per cycle
system.switch_cpus1.iew.wb_sent             511449497                       # cumulative count of insts sent to commit
system.switch_cpus1.int_regfile_reads       795744755                       # number of integer regfile reads
system.switch_cpus1.int_regfile_writes      434598373                       # number of integer regfile writes
system.switch_cpus1.ipc                      1.361559                       # IPC: Instructions Per Cycle
system.switch_cpus1.ipc_total                1.361559                       # IPC: Total IPC of All Threads
system.switch_cpus1.iq.FU_type_0::No_OpClass      1319205      0.25%      0.25% # Type of FU issued
system.switch_cpus1.iq.FU_type_0::IntAlu    392267236     75.59%     75.85% # Type of FU issued
system.switch_cpus1.iq.FU_type_0::IntMult      3433119      0.66%     76.51% # Type of FU issued
system.switch_cpus1.iq.FU_type_0::IntDiv       893613      0.17%     76.68% # Type of FU issued
system.switch_cpus1.iq.FU_type_0::FloatAdd            0      0.00%     76.68% # Type of FU issued
system.switch_cpus1.iq.FU_type_0::FloatCmp            0      0.00%     76.68% # Type of FU issued
system.switch_cpus1.iq.FU_type_0::FloatCvt            0      0.00%     76.68% # Type of FU issued
system.switch_cpus1.iq.FU_type_0::FloatMult            0      0.00%     76.68% # Type of FU issued
system.switch_cpus1.iq.FU_type_0::FloatMultAcc            0      0.00%     76.68% # Type of FU issued
system.switch_cpus1.iq.FU_type_0::FloatDiv            0      0.00%     76.68% # Type of FU issued
system.switch_cpus1.iq.FU_type_0::FloatMisc            0      0.00%     76.68% # Type of FU issued
system.switch_cpus1.iq.FU_type_0::FloatSqrt            0      0.00%     76.68% # Type of FU issued
system.switch_cpus1.iq.FU_type_0::SimdAdd            0      0.00%     76.68% # Type of FU issued
system.switch_cpus1.iq.FU_type_0::SimdAddAcc            0      0.00%     76.68% # Type of FU issued
system.switch_cpus1.iq.FU_type_0::SimdAlu            0      0.00%     76.68% # Type of FU issued
system.switch_cpus1.iq.FU_type_0::SimdCmp            0      0.00%     76.68% # Type of FU issued
system.switch_cpus1.iq.FU_type_0::SimdCvt            0      0.00%     76.68% # Type of FU issued
system.switch_cpus1.iq.FU_type_0::SimdMisc            0      0.00%     76.68% # Type of FU issued
system.switch_cpus1.iq.FU_type_0::SimdMult            0      0.00%     76.68% # Type of FU issued
system.switch_cpus1.iq.FU_type_0::SimdMultAcc            0      0.00%     76.68% # Type of FU issued
system.switch_cpus1.iq.FU_type_0::SimdShift            0      0.00%     76.68% # Type of FU issued
system.switch_cpus1.iq.FU_type_0::SimdShiftAcc            0      0.00%     76.68% # Type of FU issued
system.switch_cpus1.iq.FU_type_0::SimdDiv            0      0.00%     76.68% # Type of FU issued
system.switch_cpus1.iq.FU_type_0::SimdSqrt            0      0.00%     76.68% # Type of FU issued
system.switch_cpus1.iq.FU_type_0::SimdFloatAdd            0      0.00%     76.68% # Type of FU issued
system.switch_cpus1.iq.FU_type_0::SimdFloatAlu            0      0.00%     76.68% # Type of FU issued
system.switch_cpus1.iq.FU_type_0::SimdFloatCmp            0      0.00%     76.68% # Type of FU issued
system.switch_cpus1.iq.FU_type_0::SimdFloatCvt            0      0.00%     76.68% # Type of FU issued
system.switch_cpus1.iq.FU_type_0::SimdFloatDiv            0      0.00%     76.68% # Type of FU issued
system.switch_cpus1.iq.FU_type_0::SimdFloatMisc            0      0.00%     76.68% # Type of FU issued
system.switch_cpus1.iq.FU_type_0::SimdFloatMult            0      0.00%     76.68% # Type of FU issued
system.switch_cpus1.iq.FU_type_0::SimdFloatMultAcc            0      0.00%     76.68% # Type of FU issued
system.switch_cpus1.iq.FU_type_0::SimdFloatSqrt            0      0.00%     76.68% # Type of FU issued
system.switch_cpus1.iq.FU_type_0::SimdReduceAdd            0      0.00%     76.68% # Type of FU issued
system.switch_cpus1.iq.FU_type_0::SimdReduceAlu            0      0.00%     76.68% # Type of FU issued
system.switch_cpus1.iq.FU_type_0::SimdReduceCmp            0      0.00%     76.68% # Type of FU issued
system.switch_cpus1.iq.FU_type_0::SimdFloatReduceAdd            0      0.00%     76.68% # Type of FU issued
system.switch_cpus1.iq.FU_type_0::SimdFloatReduceCmp            0      0.00%     76.68% # Type of FU issued
system.switch_cpus1.iq.FU_type_0::SimdAes            0      0.00%     76.68% # Type of FU issued
system.switch_cpus1.iq.FU_type_0::SimdAesMix            0      0.00%     76.68% # Type of FU issued
system.switch_cpus1.iq.FU_type_0::SimdSha1Hash            0      0.00%     76.68% # Type of FU issued
[...]
system.switch_cpus3.commit.numCommittedDist::1     32292681     20.61%     50.97% # Number of insts commited each cycle
system.switch_cpus3.commit.numCommittedDist::2     17356467     11.08%     62.05% # Number of insts commited each cycle
system.switch_cpus3.commit.numCommittedDist::3     16218578     10.35%     72.40% # Number of insts commited each cycle
system.switch_cpus3.commit.numCommittedDist::4      8758401      5.59%     77.99% # Number of insts commited each cycle
system.switch_cpus3.commit.numCommittedDist::5      4361763      2.78%     80.78% # Number of insts commited each cycle
system.switch_cpus3.commit.numCommittedDist::6      3361730      2.15%     82.92% # Number of insts commited each cycle
system.switch_cpus3.commit.numCommittedDist::7      2535107      1.62%     84.54% # Number of insts commited each cycle
system.switch_cpus3.commit.numCommittedDist::8     24213936     15.46%    100.00% # Number of insts commited each cycle
system.switch_cpus3.commit.numCommittedDist::overflows            0      0.00%    100.00% # Number of insts commited each cycle
system.switch_cpus3.commit.numCommittedDist::min_value            0                       # Number of insts commited each cycle
system.switch_cpus3.commit.numCommittedDist::max_value            8                       # Number of insts commited each cycle
system.switch_cpus3.commit.numCommittedDist::total    156646886                       # Number of insts commited each cycle
system.switch_cpus3.commit.instsCommitted    249996690                       # Number of instructions committed
system.switch_cpus3.commit.opsCommitted     404131385                       # Number of ops (including micro ops) committed
system.switch_cpus3.commit.memRefs           93130933                       # Number of memory references committed
system.switch_cpus3.commit.loads             63250679                       # Number of loads committed
system.switch_cpus3.commit.amos                     0                       # Number of atomic instructions committed
system.switch_cpus3.commit.membars                  0                       # Number of memory barriers committed
system.switch_cpus3.commit.branches          36138097                       # Number of branches committed
system.switch_cpus3.commit.vector                   0                       # Number of committed Vector instructions.
system.switch_cpus3.commit.floating            459068                       # Number of committed floating point instructions.
system.switch_cpus3.commit.integer          402747046                       # Number of committed integer instructions.
system.switch_cpus3.commit.functionCalls      4796416                       # Number of function calls committed.
system.switch_cpus3.commit.committedInstType_0::No_OpClass       946312      0.23%      0.23% # Class of committed instruction
system.switch_cpus3.commit.committedInstType_0::IntAlu    305865845     75.68%     75.92% # Class of committed instruction
system.switch_cpus3.commit.committedInstType_0::IntMult      3318277      0.82%     76.74% # Class of committed instruction
system.switch_cpus3.commit.committedInstType_0::IntDiv       870018      0.22%     76.96% # Class of committed instruction
system.switch_cpus3.commit.committedInstType_0::FloatAdd            0      0.00%     76.96% # Class of committed instruction
system.switch_cpus3.commit.committedInstType_0::FloatCmp            0      0.00%     76.96% # Class of committed instruction
system.switch_cpus3.commit.committedInstType_0::FloatCvt            0      0.00%     76.96% # Class of committed instruction
system.switch_cpus3.commit.committedInstType_0::FloatMult            0      0.00%     76.96% # Class of committed instruction
system.switch_cpus3.commit.committedInstType_0::FloatMultAcc            0      0.00%     76.96% # Class of committed instruction
system.switch_cpus3.commit.committedInstType_0::FloatDiv            0      0.00%     76.96% # Class of committed instruction
system.switch_cpus3.commit.committedInstType_0::FloatMisc            0      0.00%     76.96% # Class of committed instruction
system.switch_cpus3.commit.committedInstType_0::FloatSqrt            0      0.00%     76.96% # Class of committed instruction
system.switch_cpus3.commit.committedInstType_0::SimdAdd            0      0.00%     76.96% # Class of committed instruction
system.switch_cpus3.commit.committedInstType_0::SimdAddAcc            0      0.00%     76.96% # Class of committed instruction
system.switch_cpus3.commit.committedInstType_0::SimdAlu            0      0.00%     76.96% # Class of committed instruction
system.switch_cpus3.commit.committedInstType_0::SimdCmp            0      0.00%     76.96% # Class of committed instruction
system.switch_cpus3.commit.committedInstType_0::SimdCvt            0      0.00%     76.96% # Class of committed instruction
system.switch_cpus3.commit.committedInstType_0::SimdMisc            0      0.00%     76.96% # Class of committed instruction
system.switch_cpus3.commit.committedInstType_0::SimdMult            0      0.00%     76.96% # Class of committed instruction
system.switch_cpus3.commit.committedInstType_0::SimdMultAcc            0      0.00%     76.96% # Class of committed instruction
system.switch_cpus3.commit.committedInstType_0::SimdShift            0      0.00%     76.96% # Class of committed instruction
system.switch_cpus3.commit.committedInstType_0::SimdShiftAcc            0      0.00%     76.96% # Class of committed instruction
system.switch_cpus3.commit.committedInstType_0::SimdDiv            0      0.00%     76.96% # Class of committed instruction
system.switch_cpus3.commit.committedInstType_0::SimdSqrt            0      0.00%     76.96% # Class of committed instruction
system.switch_cpus3.commit.committedInstType_0::SimdFloatAdd            0      0.00%     76.96% # Class of committed instruction
system.switch_cpus3.commit.committedInstType_0::SimdFloatAlu            0      0.00%     76.96% # Class of committed instruction
system.switch_cpus3.commit.committedInstType_0::SimdFloatCmp            0      0.00%     76.96% # Class of committed instruction
system.switch_cpus3.commit.committedInstType_0::SimdFloatCvt            0      0.00%     76.96% # Class of committed instruction
system.switch_cpus3.commit.committedInstType_0::SimdFloatDiv            0      0.00%     76.96% # Class of committed instruction
system.switch_cpus3.commit.committedInstType_0::SimdFloatMisc            0      0.00%     76.96% # Class of committed instruction
system.switch_cpus3.commit.committedInstType_0::SimdFloatMult            0      0.00%     76.96% # Class of committed instruction
system.switch_cpus3.commit.committedInstType_0::SimdFloatMultAcc            0      0.00%     76.96% # Class of committed instruction
system.switch_cpus3.commit.committedInstType_0::SimdFloatSqrt            0      0.00%     76.96% # Class of committed instruction
system.switch_cpus3.commit.committedInstType_0::SimdReduceAdd            0      0.00%     76.96% # Class of committed instruction
system.switch_cpus3.commit.committedInstType_0::SimdReduceAlu            0      0.00%     76.96% # Class of committed instruction
system.switch_cpus3.commit.committedInstType_0::SimdReduceCmp            0      0.00%     76.96% # Class of committed instruction
system.switch_cpus3.commit.committedInstType_0::SimdFloatReduceAdd            0      0.00%     76.96% # Class of committed instruction
system.switch_cpus3.commit.committedInstType_0::SimdFloatReduceCmp            0      0.00%     76.96% # Class of committed instruction
system.switch_cpus3.commit.committedInstType_0::SimdAes            0      0.00%     76.96% # Class of committed instruction
system.switch_cpus3.commit.committedInstType_0::SimdAesMix            0      0.00%     76.96% # Class of committed instruction
system.switch_cpus3.commit.committedInstType_0::SimdSha1Hash            0      0.00%     76.96% # Class of committed instruction
system.switch_cpus3.commit.committedInstType_0::SimdSha1Hash2            0      0.00%     76.96% # Class of committed instruction
system.switch_cpus3.commit.committedInstType_0::SimdSha256Hash            0      0.00%     76.96% # Class of committed instruction
system.switch_cpus3.commit.committedInstType_0::SimdSha256Hash2            0      0.00%     76.96% # Class of committed instruction
system.switch_cpus3.commit.committedInstType_0::SimdShaSigma2            0      0.00%     76.96% # Class of committed instruction
system.switch_cpus3.commit.committedInstType_0::SimdShaSigma3            0      0.00%     76.96% # Class of committed instruction
system.switch_cpus3.commit.committedInstType_0::SimdPredAlu            0      0.00%     76.96% # Class of committed instruction
system.switch_cpus3.commit.committedInstType_0::MemRead     63021145     15.59%     92.55% # Class of committed instruction
system.switch_cpus3.commit.committedInstType_0::MemWrite     29650720      7.34%     99.89% # Class of committed instruction
system.switch_cpus3.commit.committedInstType_0::FloatMemRead       229534      0.06%     99.94% # Class of committed instruction
system.switch_cpus3.commit.committedInstType_0::FloatMemWrite       229534      0.06%    100.00% # Class of committed instruction
system.switch_cpus3.commit.committedInstType_0::IprAccess            0      0.00%    100.00% # Class of committed instruction
system.switch_cpus3.commit.committedInstType_0::InstPrefetch            0      0.00%    100.00% # Class of committed instruction
system.switch_cpus3.commit.committedInstType_0::total    404131385                       # Class of committed instruction
system.switch_cpus3.commit.commitEligibleSamples     24213936                       # number cycles where commit BW limit reached
system.switch_cpus3.decode.idleCycles        17777886                       # Number of cycles decode is idle
system.switch_cpus3.decode.blockedCycles     72060097                       # Number of cycles decode is blocked
system.switch_cpus3.decode.runCycles         68523289                       # Number of cycles decode is running
system.switch_cpus3.decode.unblockCycles     22084173                       # Number of cycles decode is unblocking
system.switch_cpus3.decode.squashCycles       3014705                       # Number of cycles decode is squashing
system.switch_cpus3.decode.branchResolved     30468995                       # Number of times decode resolved a  branch
system.switch_cpus3.decode.branchMispred       254279                       # Number of times decode detected a branch misprediction
system.switch_cpus3.decode.decodedInsts     651940046                       # Number of instructions handled by decode
system.switch_cpus3.decode.squashedInsts      1163380                       # Number of squashed instructions handled by decode
system.switch_cpus3.dtb.rdAccesses           82209272                       # TLB accesses on read requests
system.switch_cpus3.dtb.wrAccesses           36238858                       # TLB accesses on write requests
system.switch_cpus3.dtb.rdMisses                57719                       # TLB misses on read requests
system.switch_cpus3.dtb.wrMisses                 1469                       # TLB misses on write requests
system.switch_cpus3.dtb.walker.power_state.pwrStateResidencyTicks::UNDEFINED 16607516736456                       # Cumulative time (in ticks) in various power states
system.switch_cpus3.fetch.icacheStallCycles      5121527                       # Number of cycles fetch is stalled on an Icache miss
system.switch_cpus3.fetch.insts             443793311                       # Number of instructions fetch has processed
system.switch_cpus3.fetch.branches           65121793                       # Number of branches that fetch encountered
system.switch_cpus3.fetch.predictedBranches     41419548                       # Number of branches that fetch has predicted taken
system.switch_cpus3.fetch.cycles            175075214                       # Number of cycles fetch has run and was not squashing or blocked
system.switch_cpus3.fetch.squashCycles        6526500                       # Number of cycles fetch has spent squashing
system.switch_cpus3.fetch.miscStallCycles           22                       # Number of cycles fetch has spent waiting on interrupts,or bad addresses, or out of MSHRs
system.switch_cpus3.fetch.pendingTrapStallCycles          140                       # Number of stall cycles due to pending traps
system.switch_cpus3.fetch.cacheLines         66255517                       # Number of cache lines fetched
system.switch_cpus3.fetch.icacheSquashes        68318                       # Number of outstanding Icache misses that were squashed
system.switch_cpus3.fetch.nisnDist::samples    183460153                       # Number of instructions fetched each cycle (Total)
system.switch_cpus3.fetch.nisnDist::mean     3.901291                       # Number of instructions fetched each cycle (Total)
system.switch_cpus3.fetch.nisnDist::stdev     3.360995                       # Number of instructions fetched each cycle (Total)
system.switch_cpus3.fetch.nisnDist::underflows            0      0.00%      0.00% # Number of instructions fetched each cycle (Total)
system.switch_cpus3.fetch.nisnDist::0        59973826     32.69%     32.69% # Number of instructions fetched each cycle (Total)
system.switch_cpus3.fetch.nisnDist::1         9085770      4.95%     37.64% # Number of instructions fetched each cycle (Total)
system.switch_cpus3.fetch.nisnDist::2         8911308      4.86%     42.50% # Number of instructions fetched each cycle (Total)
system.switch_cpus3.fetch.nisnDist::3         8277560      4.51%     47.01% # Number of instructions fetched each cycle (Total)
system.switch_cpus3.fetch.nisnDist::4         9163581      4.99%     52.01% # Number of instructions fetched each cycle (Total)
system.switch_cpus3.fetch.nisnDist::5        16621908      9.06%     61.07% # Number of instructions fetched each cycle (Total)
system.switch_cpus3.fetch.nisnDist::6         9885205      5.39%     66.46% # Number of instructions fetched each cycle (Total)
system.switch_cpus3.fetch.nisnDist::7         7412658      4.04%     70.50% # Number of instructions fetched each cycle (Total)
system.switch_cpus3.fetch.nisnDist::8        54128337     29.50%    100.00% # Number of instructions fetched each cycle (Total)
system.switch_cpus3.fetch.nisnDist::overflows            0      0.00%    100.00% # Number of instructions fetched each cycle (Total)
system.switch_cpus3.fetch.nisnDist::min_value            0                       # Number of instructions fetched each cycle (Total)
system.switch_cpus3.fetch.nisnDist::max_value            8                       # Number of instructions fetched each cycle (Total)
system.switch_cpus3.fetch.nisnDist::total    183460153                       # Number of instructions fetched each cycle (Total)
system.switch_cpus3.fetch.branchRate         0.354721                       # Number of branch fetches per cycle
system.switch_cpus3.fetch.rate               2.417362                       # Number of inst fetches per cycle
system.switch_cpus3.itb.rdAccesses                  0                       # TLB accesses on read requests
system.switch_cpus3.itb.wrAccesses           66255539                       # TLB accesses on write requests
system.switch_cpus3.itb.rdMisses                    0                       # TLB misses on read requests
system.switch_cpus3.itb.wrMisses                   48                       # TLB misses on write requests
system.switch_cpus3.itb.walker.power_state.pwrStateResidencyTicks::UNDEFINED 16607516736456                       # Cumulative time (in ticks) in various power states
system.switch_cpus3.lsq0.forwLoads           13320024                       # Number of loads that had data forwarded from stores
system.switch_cpus3.lsq0.squashedLoads       31312858                       # Number of loads squashed
system.switch_cpus3.lsq0.ignoredResponses        50812                       # Number of memory responses ignored because the instruction is squashed
system.switch_cpus3.lsq0.memOrderViolation       110558                       # Number of memory ordering violations
system.switch_cpus3.lsq0.squashedStores      13531497                       # Number of stores squashed
system.switch_cpus3.lsq0.rescheduledLoads         4038                       # Number of loads that were rescheduled
system.switch_cpus3.lsq0.blockedByCache             0                       # Number of times an access to memory failed due to the cache being blocked
system.switch_cpus3.power_state.pwrStateResidencyTicks::OFF  61134075396                       # Cumulative time (in ticks) in various power states
system.switch_cpus3.rename.squashCycles       3014705                       # Number of cycles rename is squashing
system.switch_cpus3.rename.idleCycles        26828646                       # Number of cycles rename is idle
system.switch_cpus3.rename.blockCycles       40240234                       # Number of cycles rename is blocking
system.switch_cpus3.rename.serializeStallCycles            0                       # count of cycles rename stalledfor serializing inst
system.switch_cpus3.rename.runCycles         81132341                       # Number of cycles rename is running
system.switch_cpus3.rename.unblockCycles     32244224                       # Number of cycles rename is unblocking
system.switch_cpus3.rename.renamedInsts     634322255                       # Number of instructions processed by rename
system.switch_cpus3.rename.ROBFullEvents       879990                       # Number of times rename has blocked due to ROB full
system.switch_cpus3.rename.IQFullEvents      25423130                       # Number of times rename has blocked due to IQ full
system.switch_cpus3.rename.LQFullEvents       1695784                       # Number of times rename has blocked due to LQ full
system.switch_cpus3.rename.SQFullEvents        266073                       # Number of times rename has blocked due to SQ full
system.switch_cpus3.rename.fullRegistersEvents           46                       # Number of times there has been no free registers
system.switch_cpus3.rename.renamedOperands    817262784                       # Number of destination operands rename has renamed
system.switch_cpus3.rename.lookups         1623622817                       # Number of register rename lookups that rename has made
system.switch_cpus3.rename.intLookups      1038014335                       # Number of integer rename lookups
system.switch_cpus3.rename.fpLookups           324352                       # Number of floating rename lookups
system.switch_cpus3.rename.committedMaps    521172579                       # Number of HB maps that are committed
system.switch_cpus3.rename.undoneMaps       296090119                       # Number of HB maps that are undone due to squashing
system.switch_cpus3.rename.serializing              0                       # count of serializing insts renamed
system.switch_cpus3.rename.tempSerializing            0                       # count of temporary serializing insts renamed
system.switch_cpus3.rename.skidInsts         84140804                       # count of insts added to the skid buffer
system.switch_cpus3.rob.reads               736234443                       # The number of ROB reads
system.switch_cpus3.rob.writes             1234491235                       # The number of ROB writes
system.switch_cpus3.thread0.numInsts        249996690                       # Number of Instructions committed
system.switch_cpus3.thread0.numOps          404131385                       # Number of Ops committed
system.switch_cpus3.thread0.numMemRefs              0                       # Number of Memory References
system.voltage_domain.voltage                       1                       # Voltage in Volts

---------- End Simulation Statistics   ----------
