
---------- Begin Simulation Statistics ----------
final_tick                               16944258167946                       # Number of ticks from beginning of simulation (restored from checkpoints and never reset)
host_inst_rate                                 187746                       # Simulator instruction rate (inst/s)
host_mem_usage                               17128436                       # Number of bytes of host memory used
host_op_rate                                   286190                       # Simulator op (including micro ops) rate (op/s)
host_seconds                                  5324.15                       # Real time elapsed on the host
host_tick_rate                                9833565                       # Simulator tick rate (ticks/s)
sim_freq                                 1000000000000                       # Frequency of simulated ticks
sim_insts                                   999585925                       # Number of instructions simulated
sim_ops                                    1523717830                       # Number of ops (including micro ops) simulated
sim_seconds                                  0.052355                       # Number of seconds simulated
sim_ticks                                 52355333592                       # Number of ticks simulated
system.cpu0.Branches                                3                       # Number of branches fetched
system.cpu0.committedInsts                         14                       # Number of instructions committed
system.cpu0.committedOps                           22                       # Number of ops (including micro ops) committed
system.cpu0.idle_fraction                           0                       # Percentage of idle cycles
system.cpu0.l2bus.snoop_filter.hit_multi_requests            0                       # Number of requests hitting in the snoop filter with multiple (>1) holders of the requested data.
system.cpu0.l2bus.snoop_filter.hit_multi_snoops            0                       # Number of snoops hitting in the snoop filter with multiple (>1) holders of the requested data.
system.cpu0.l2bus.snoop_filter.hit_single_requests      2946293                       # Number of requests hitting in the snoop filter with a single holder of the requested data.
system.cpu0.l2bus.snoop_filter.hit_single_snoops         7909                       # Number of snoops hitting in the snoop filter with a single holder of the requested data.
system.cpu0.l2bus.snoop_filter.tot_requests      5535085                       # Total number of requests made to the snoop filter.
system.cpu0.l2bus.snoop_filter.tot_snoops         7909                       # Total number of snoops made to the snoop filter.
system.cpu0.mmucache.mmubus.snoop_filter.hit_multi_requests            0                       # Number of requests hitting in the snoop filter with multiple (>1) holders of the requested data.
system.cpu0.mmucache.mmubus.snoop_filter.hit_multi_snoops            0                       # Number of snoops hitting in the snoop filter with multiple (>1) holders of the requested data.
system.cpu0.mmucache.mmubus.snoop_filter.hit_single_requests            0                       # Number of requests hitting in the snoop filter with a single holder of the requested data.
system.cpu0.mmucache.mmubus.snoop_filter.hit_single_snoops            0                       # Number of snoops hitting in the snoop filter with a single holder of the requested data.
system.cpu0.mmucache.mmubus.snoop_filter.tot_requests            0                       # Total number of requests made to the snoop filter.
system.cpu0.mmucache.mmubus.snoop_filter.tot_snoops            0                       # Total number of snoops made to the snoop filter.
system.cpu0.not_idle_fraction                       1                       # Percentage of non-idle cycles
system.cpu0.numCycles                              30                       # number of cpu cycles simulated
system.cpu0.numWorkItemsCompleted                   0                       # number of work items this cpu completed
system.cpu0.numWorkItemsStarted                     0                       # number of work items this cpu started
system.cpu0.num_busy_cycles                        30                       # Number of busy cycles
system.cpu0.num_cc_register_reads                  19                       # number of times the CC registers were read
system.cpu0.num_cc_register_writes                  4                       # number of times the CC registers were written
system.cpu0.num_conditional_control_insts            3                       # number of instructions that are conditional controls
system.cpu0.num_fp_alu_accesses                    11                       # Number of float alu accesses
system.cpu0.num_fp_insts                           11                       # number of float instructions
system.cpu0.num_fp_register_reads                  17                       # number of times the floating registers were read
system.cpu0.num_fp_register_writes                  9                       # number of times the floating registers were written
system.cpu0.num_func_calls                          0                       # number of times a function call or return occured
system.cpu0.num_idle_cycles                         0                       # Number of idle cycles
system.cpu0.num_int_alu_accesses                   15                       # Number of integer alu accesses
system.cpu0.num_int_insts                          15                       # number of integer instructions
system.cpu0.num_int_register_reads                 28                       # number of times the integer registers were read
system.cpu0.num_int_register_writes                 8                       # number of times the integer registers were written
system.cpu0.num_load_insts                          5                       # Number of load instructions
system.cpu0.num_mem_refs                            5                       # number of memory refs
system.cpu0.num_store_insts                         0                       # Number of store instructions
system.cpu0.num_vec_alu_accesses                    0                       # Number of vector alu accesses
system.cpu0.num_vec_insts                           0                       # number of vector instructions
system.cpu0.num_vec_register_reads                  0                       # number of times the vector registers were read
system.cpu0.num_vec_register_writes                 0                       # number of times the vector registers were written
system.cpu0.op_class::No_OpClass                    0      0.00%      0.00% # Class of executed instruction
system.cpu0.op_class::IntAlu                       11     50.00%     50.00% # Class of executed instruction
system.cpu0.op_class::IntMult                       0      0.00%     50.00% # Class of executed instruction
system.cpu0.op_class::IntDiv                        0      0.00%     50.00% # Class of executed instruction
system.cpu0.op_class::FloatAdd                      0      0.00%     50.00% # Class of executed instruction
system.cpu0.op_class::FloatCmp                      0      0.00%     50.00% # Class of executed instruction
system.cpu0.op_class::FloatCvt                      0      0.00%     50.00% # Class of executed instruction
system.cpu0.op_class::FloatMult                     0      0.00%     50.00% # Class of executed instruction
system.cpu0.op_class::FloatMultAcc                  0      0.00%     50.00% # Class of executed instruction
system.cpu0.op_class::FloatDiv                      0      0.00%     50.00% # Class of executed instruction
system.cpu0.op_class::FloatMisc                     0      0.00%     50.00% # Class of executed instruction
system.cpu0.op_class::FloatSqrt                     0      0.00%     50.00% # Class of executed instruction
system.cpu0.op_class::SimdAdd                       0      0.00%     50.00% # Class of executed instruction
system.cpu0.op_class::SimdAddAcc                    0      0.00%     50.00% # Class of executed instruction
system.cpu0.op_class::SimdAlu                       0      0.00%     50.00% # Class of executed instruction
system.cpu0.op_class::SimdCmp                       0      0.00%     50.00% # Class of executed instruction
system.cpu0.op_class::SimdCvt                       0      0.00%     50.00% # Class of executed instruction
system.cpu0.op_class::SimdMisc                      0      0.00%     50.00% # Class of executed instruction
system.cpu0.op_class::SimdMult                      0      0.00%     50.00% # Class of executed instruction
system.cpu0.op_class::SimdMultAcc                   0      0.00%     50.00% # Class of executed instruction
system.cpu0.op_class::SimdShift                     0      0.00%     50.00% # Class of executed instruction
system.cpu0.op_class::SimdShiftAcc                  0      0.00%     50.00% # Class of executed instruction
system.cpu0.op_class::SimdDiv                       0      0.00%     50.00% # Class of executed instruction
system.cpu0.op_class::SimdSqrt                      0      0.00%     50.00% # Class of executed instruction
system.cpu0.op_class::SimdFloatAdd                  1      4.55%     54.55% # Class of executed instruction
system.cpu0.op_class::SimdFloatAlu                  0      0.00%     54.55% # Class of executed instruction
system.cpu0.op_class::SimdFloatCmp                  0      0.00%     54.55% # Class of executed instruction
system.cpu0.op_class::SimdFloatCvt                  2      9.09%     63.64% # Class of executed instruction
system.cpu0.op_class::SimdFloatDiv                  1      4.55%     68.18% # Class of executed instruction
system.cpu0.op_class::SimdFloatMisc                 0      0.00%     68.18% # Class of executed instruction
system.cpu0.op_class::SimdFloatMult                 1      4.55%     72.73% # Class of executed instruction
system.cpu0.op_class::SimdFloatMultAcc              0      0.00%     72.73% # Class of executed instruction
system.cpu0.op_class::SimdFloatSqrt                 1      4.55%     77.27% # Class of executed instruction
system.cpu0.op_class::SimdReduceAdd                 0      0.00%     77.27% # Class of executed instruction
system.cpu0.op_class::SimdReduceAlu                 0      0.00%     77.27% # Class of executed instruction
system.cpu0.op_class::SimdReduceCmp                 0      0.00%     77.27% # Class of executed instruction
system.cpu0.op_class::SimdFloatReduceAdd            0      0.00%     77.27% # Class of executed instruction
system.cpu0.op_class::SimdFloatReduceCmp            0      0.00%     77.27% # Class of executed instruction
system.cpu0.op_class::SimdAes                       0      0.00%     77.27% # Class of executed instruction
system.cpu0.op_class::SimdAesMix                    0      0.00%     77.27% # Class of executed instruction
system.cpu0.op_class::SimdSha1Hash                  0      0.00%     77.27% # Class of executed instruction
system.cpu0.op_class::SimdSha1Hash2                 0      0.00%     77.27% # Class of executed instruction
system.cpu0.op_class::SimdSha256Hash                0      0.00%     77.27% # Class of executed instruction
system.cpu0.op_class::SimdSha256Hash2               0      0.00%     77.27% # Class of executed instruction
system.cpu0.op_class::SimdShaSigma2                 0      0.00%     77.27% # Class of executed instruction
system.cpu0.op_class::SimdShaSigma3                 0      0.00%     77.27% # Class of executed instruction
system.cpu0.op_class::SimdPredAlu                   0      0.00%     77.27% # Class of executed instruction
system.cpu0.op_class::MemRead                       1      4.55%     81.82% # Class of executed instruction
system.cpu0.op_class::MemWrite                      0      0.00%     81.82% # Class of executed instruction
system.cpu0.op_class::FloatMemRead                  4     18.18%    100.00% # Class of executed instruction
system.cpu0.op_class::FloatMemWrite                 0      0.00%    100.00% # Class of executed instruction
system.cpu0.op_class::IprAccess                     0      0.00%    100.00% # Class of executed instruction
system.cpu0.op_class::InstPrefetch                  0      0.00%    100.00% # Class of executed instruction
system.cpu0.op_class::total                        22                       # Class of executed instruction
system.cpu0.workload.numSyscalls                    0                       # Number of system calls
system.cpu1.Branches                                3                       # Number of branches fetched
system.cpu1.committedInsts                         14                       # Number of instructions committed
system.cpu1.committedOps                           22                       # Number of ops (including micro ops) committed
system.cpu1.idle_fraction                           0                       # Percentage of idle cycles
system.cpu1.l2bus.snoop_filter.hit_multi_requests            0                       # Number of requests hitting in the snoop filter with multiple (>1) holders of the requested data.
system.cpu1.l2bus.snoop_filter.hit_multi_snoops            0                       # Number of snoops hitting in the snoop filter with multiple (>1) holders of the requested data.
system.cpu1.l2bus.snoop_filter.hit_single_requests      2945243                       # Number of requests hitting in the snoop filter with a single holder of the requested data.
system.cpu1.l2bus.snoop_filter.hit_single_snoops         7933                       # Number of snoops hitting in the snoop filter with a single holder of the requested data.
system.cpu1.l2bus.snoop_filter.tot_requests      5531771                       # Total number of requests made to the snoop filter.
system.cpu1.l2bus.snoop_filter.tot_snoops         7933                       # Total number of snoops made to the snoop filter.
system.cpu1.mmucache.mmubus.snoop_filter.hit_multi_requests            0                       # Number of requests hitting in the snoop filter with multiple (>1) holders of the requested data.
system.cpu1.mmucache.mmubus.snoop_filter.hit_multi_snoops            0                       # Number of snoops hitting in the snoop filter with multiple (>1) holders of the requested data.
system.cpu1.mmucache.mmubus.snoop_filter.hit_single_requests            0                       # Number of requests hitting in the snoop filter with a single holder of the requested data.
system.cpu1.mmucache.mmubus.snoop_filter.hit_single_snoops            0                       # Number of snoops hitting in the snoop filter with a single holder of the requested data.
system.cpu1.mmucache.mmubus.snoop_filter.tot_requests            0                       # Total number of requests made to the snoop filter.
system.cpu1.mmucache.mmubus.snoop_filter.tot_snoops            0                       # Total number of snoops made to the snoop filter.
system.cpu1.not_idle_fraction                       1                       # Percentage of non-idle cycles
system.cpu1.numCycles                              30                       # number of cpu cycles simulated
system.cpu1.numWorkItemsCompleted                   0                       # number of work items this cpu completed
system.cpu1.numWorkItemsStarted                     0                       # number of work items this cpu started
system.cpu1.num_busy_cycles                        30                       # Number of busy cycles
system.cpu1.num_cc_register_reads                  19                       # number of times the CC registers were read
system.cpu1.num_cc_register_writes                  4                       # number of times the CC registers were written
system.cpu1.num_conditional_control_insts            3                       # number of instructions that are conditional controls
system.cpu1.num_fp_alu_accesses                    11                       # Number of float alu accesses
system.cpu1.num_fp_insts                           11                       # number of float instructions
system.cpu1.num_fp_register_reads                  17                       # number of times the floating registers were read
system.cpu1.num_fp_register_writes                  9                       # number of times the floating registers were written
system.cpu1.num_func_calls                          0                       # number of times a function call or return occured
system.cpu1.num_idle_cycles                         0                       # Number of idle cycles
system.cpu1.num_int_alu_accesses                   15                       # Number of integer alu accesses
system.cpu1.num_int_insts                          15                       # number of integer instructions
system.cpu1.num_int_register_reads                 28                       # number of times the integer registers were read
system.cpu1.num_int_register_writes                 8                       # number of times the integer registers were written
system.cpu1.num_load_insts                          5                       # Number of load instructions
system.cpu1.num_mem_refs                            5                       # number of memory refs
system.cpu1.num_store_insts                         0                       # Number of store instructions
system.cpu1.num_vec_alu_accesses                    0                       # Number of vector alu accesses
system.cpu1.num_vec_insts                           0                       # number of vector instructions
system.cpu1.num_vec_register_reads                  0                       # number of times the vector registers were read
system.cpu1.num_vec_register_writes                 0                       # number of times the vector registers were written
system.cpu1.op_class::No_OpClass                    0      0.00%      0.00% # Class of executed instruction
system.cpu1.op_class::IntAlu                       11     50.00%     50.00% # Class of executed instruction
system.cpu1.op_class::IntMult                       0      0.00%     50.00% # Class of executed instruction
system.cpu1.op_class::IntDiv                        0      0.00%     50.00% # Class of executed instruction
system.cpu1.op_class::FloatAdd                      0      0.00%     50.00% # Class of executed instruction
system.cpu1.op_class::FloatCmp                      0      0.00%     50.00% # Class of executed instruction
system.cpu1.op_class::FloatCvt                      0      0.00%     50.00% # Class of executed instruction
system.cpu1.op_class::FloatMult                     0      0.00%     50.00% # Class of executed instruction
system.cpu1.op_class::FloatMultAcc                  0      0.00%     50.00% # Class of executed instruction
system.cpu1.op_class::FloatDiv                      0      0.00%     50.00% # Class of executed instruction
system.cpu1.op_class::FloatMisc                     0      0.00%     50.00% # Class of executed instruction
system.cpu1.op_class::FloatSqrt                     0      0.00%     50.00% # Class of executed instruction
system.cpu1.op_class::SimdAdd                       0      0.00%     50.00% # Class of executed instruction
system.cpu1.op_class::SimdAddAcc                    0      0.00%     50.00% # Class of executed instruction
system.cpu1.op_class::SimdAlu                       0      0.00%     50.00% # Class of executed instruction
system.cpu1.op_class::SimdCmp                       0      0.00%     50.00% # Class of executed instruction
system.cpu1.op_class::SimdCvt                       0      0.00%     50.00% # Class of executed instruction
system.cpu1.op_class::SimdMisc                      0      0.00%     50.00% # Class of executed instruction
system.cpu1.op_class::SimdMult                      0      0.00%     50.00% # Class of executed instruction
system.cpu1.op_class::SimdMultAcc                   0      0.00%     50.00% # Class of executed instruction
system.cpu1.op_class::SimdShift                     0      0.00%     50.00% # Class of executed instruction
system.cpu1.op_class::SimdShiftAcc                  0      0.00%     50.00% # Class of executed instruction
system.cpu1.op_class::SimdDiv                       0      0.00%     50.00% # Class of executed instruction
system.cpu1.op_class::SimdSqrt                      0      0.00%     50.00% # Class of executed instruction
system.cpu1.op_class::SimdFloatAdd                  1      4.55%     54.55% # Class of executed instruction
system.cpu1.op_class::SimdFloatAlu                  0      0.00%     54.55% # Class of executed instruction
system.cpu1.op_class::SimdFloatCmp                  0      0.00%     54.55% # Class of executed instruction
system.cpu1.op_class::SimdFloatCvt                  2      9.09%     63.64% # Class of executed instruction
system.cpu1.op_class::SimdFloatDiv                  1      4.55%     68.18% # Class of executed instruction
system.cpu1.op_class::SimdFloatMisc                 0      0.00%     68.18% # Class of executed instruction
system.cpu1.op_class::SimdFloatMult                 1      4.55%     72.73% # Class of executed instruction
system.cpu1.op_class::SimdFloatMultAcc              0      0.00%     72.73% # Class of executed instruction
system.cpu1.op_class::SimdFloatSqrt                 1      4.55%     77.27% # Class of executed instruction
system.cpu1.op_class::SimdReduceAdd                 0      0.00%     77.27% # Class of executed instruction
system.cpu1.op_class::SimdReduceAlu                 0      0.00%     77.27% # Class of executed instruction
system.cpu1.op_class::SimdReduceCmp                 0      0.00%     77.27% # Class of executed instruction
system.cpu1.op_class::SimdFloatReduceAdd            0      0.00%     77.27% # Class of executed instruction
system.cpu1.op_class::SimdFloatReduceCmp            0      0.00%     77.27% # Class of executed instruction
system.cpu1.op_class::SimdAes                       0      0.00%     77.27% # Class of executed instruction
system.cpu1.op_class::SimdAesMix                    0      0.00%     77.27% # Class of executed instruction
system.cpu1.op_class::SimdSha1Hash                  0      0.00%     77.27% # Class of executed instruction
system.cpu1.op_class::SimdSha1Hash2                 0      0.00%     77.27% # Class of executed instruction
system.cpu1.op_class::SimdSha256Hash                0      0.00%     77.27% # Class of executed instruction
system.cpu1.op_class::SimdSha256Hash2               0      0.00%     77.27% # Class of executed instruction
system.cpu1.op_class::SimdShaSigma2                 0      0.00%     77.27% # Class of executed instruction
system.cpu1.op_class::SimdShaSigma3                 0      0.00%     77.27% # Class of executed instruction
system.cpu1.op_class::SimdPredAlu                   0      0.00%     77.27% # Class of executed instruction
system.cpu1.op_class::MemRead                       1      4.55%     81.82% # Class of executed instruction
system.cpu1.op_class::MemWrite                      0      0.00%     81.82% # Class of executed instruction
system.cpu1.op_class::FloatMemRead                  4     18.18%    100.00% # Class of executed instruction
system.cpu1.op_class::FloatMemWrite                 0      0.00%    100.00% # Class of executed instruction
system.cpu1.op_class::IprAccess                     0      0.00%    100.00% # Class of executed instruction
system.cpu1.op_class::InstPrefetch                  0      0.00%    100.00% # Class of executed instruction
system.cpu1.op_class::total                        22                       # Class of executed instruction
system.cpu1.workload.numSyscalls                    0                       # Number of system calls
system.cpu2.Branches                                3                       # Number of branches fetched
system.cpu2.committedInsts                         14                       # Number of instructions committed
system.cpu2.committedOps                           22                       # Number of ops (including micro ops) committed
system.cpu2.idle_fraction                           0                       # Percentage of idle cycles
system.cpu2.l2bus.snoop_filter.hit_multi_requests            0                       # Number of requests hitting in the snoop filter with multiple (>1) holders of the requested data.
system.cpu2.l2bus.snoop_filter.hit_multi_snoops            0                       # Number of snoops hitting in the snoop filter with multiple (>1) holders of the requested data.
system.cpu2.l2bus.snoop_filter.hit_single_requests      2945875                       # Number of requests hitting in the snoop filter with a single holder of the requested data.
system.cpu2.l2bus.snoop_filter.hit_single_snoops         7903                       # Number of snoops hitting in the snoop filter with a single holder of the requested data.
system.cpu2.l2bus.snoop_filter.tot_requests      5534346                       # Total number of requests made to the snoop filter.
system.cpu2.l2bus.snoop_filter.tot_snoops         7903                       # Total number of snoops made to the snoop filter.
system.cpu2.mmucache.mmubus.snoop_filter.hit_multi_requests            0                       # Number of requests hitting in the snoop filter with multiple (>1) holders of the requested data.
system.cpu2.mmucache.mmubus.snoop_filter.hit_multi_snoops            0                       # Number of snoops hitting in the snoop filter with multiple (>1) holders of the requested data.
system.cpu2.mmucache.mmubus.snoop_filter.hit_single_requests            0                       # Number of requests hitting in the snoop filter with a single holder of the requested data.
system.cpu2.mmucache.mmubus.snoop_filter.hit_single_snoops            0                       # Number of snoops hitting in the snoop filter with a single holder of the requested data.
system.cpu2.mmucache.mmubus.snoop_filter.tot_requests            0                       # Total number of requests made to the snoop filter.
system.cpu2.mmucache.mmubus.snoop_filter.tot_snoops            0                       # Total number of snoops made to the snoop filter.
system.cpu2.not_idle_fraction                       1                       # Percentage of non-idle cycles
system.cpu2.numCycles                              30                       # number of cpu cycles simulated
system.cpu2.numWorkItemsCompleted                   0                       # number of work items this cpu completed
system.cpu2.numWorkItemsStarted                     0                       # number of work items this cpu started
system.cpu2.num_busy_cycles                        30                       # Number of busy cycles
system.cpu2.num_cc_register_reads                  19                       # number of times the CC registers were read
system.cpu2.num_cc_register_writes                  4                       # number of times the CC registers were written
system.cpu2.num_conditional_control_insts            3                       # number of instructions that are conditional controls
system.cpu2.num_fp_alu_accesses                    11                       # Number of float alu accesses
system.cpu2.num_fp_insts                           11                       # number of float instructions
system.cpu2.num_fp_register_reads                  17                       # number of times the floating registers were read
system.cpu2.num_fp_register_writes                  9                       # number of times the floating registers were written
system.cpu2.num_func_calls                          0                       # number of times a function call or return occured
system.cpu2.num_idle_cycles                         0                       # Number of idle cycles
system.cpu2.num_int_alu_accesses                   15                       # Number of integer alu accesses
system.cpu2.num_int_insts                          15                       # number of integer instructions
system.cpu2.num_int_register_reads                 28                       # number of times the integer registers were read
system.cpu2.num_int_register_writes                 8                       # number of times the integer registers were written
system.cpu2.num_load_insts                          5                       # Number of load instructions
system.cpu2.num_mem_refs                            5                       # number of memory refs
system.cpu2.num_store_insts                         0                       # Number of store instructions
system.cpu2.num_vec_alu_accesses                    0                       # Number of vector alu accesses
system.cpu2.num_vec_insts                           0                       # number of vector instructions
system.cpu2.num_vec_register_reads                  0                       # number of times the vector registers were read
system.cpu2.num_vec_register_writes                 0                       # number of times the vector registers were written
system.cpu2.op_class::No_OpClass                    0      0.00%      0.00% # Class of executed instruction
system.cpu2.op_class::IntAlu                       11     50.00%     50.00% # Class of executed instruction
system.cpu2.op_class::IntMult                       0      0.00%     50.00% # Class of executed instruction
system.cpu2.op_class::IntDiv                        0      0.00%     50.00% # Class of executed instruction
system.cpu2.op_class::FloatAdd                      0      0.00%     50.00% # Class of executed instruction
system.cpu2.op_class::FloatCmp                      0      0.00%     50.00% # Class of executed instruction
system.cpu2.op_class::FloatCvt                      0      0.00%     50.00% # Class of executed instruction
system.cpu2.op_class::FloatMult                     0      0.00%     50.00% # Class of executed instruction
system.cpu2.op_class::FloatMultAcc                  0      0.00%     50.00% # Class of executed instruction
system.cpu2.op_class::FloatDiv                      0      0.00%     50.00% # Class of executed instruction
system.cpu2.op_class::FloatMisc                     0      0.00%     50.00% # Class of executed instruction
system.cpu2.op_class::FloatSqrt                     0      0.00%     50.00% # Class of executed instruction
system.cpu2.op_class::SimdAdd                       0      0.00%     50.00% # Class of executed instruction
system.cpu2.op_class::SimdAddAcc                    0      0.00%     50.00% # Class of executed instruction
system.cpu2.op_class::SimdAlu                       0      0.00%     50.00% # Class of executed instruction
system.cpu2.op_class::SimdCmp                       0      0.00%     50.00% # Class of executed instruction
system.cpu2.op_class::SimdCvt                       0      0.00%     50.00% # Class of executed instruction
system.cpu2.op_class::SimdMisc                      0      0.00%     50.00% # Class of executed instruction
system.cpu2.op_class::SimdMult                      0      0.00%     50.00% # Class of executed instruction
system.cpu2.op_class::SimdMultAcc                   0      0.00%     50.00% # Class of executed instruction
system.cpu2.op_class::SimdShift                     0      0.00%     50.00% # Class of executed instruction
system.cpu2.op_class::SimdShiftAcc                  0      0.00%     50.00% # Class of executed instruction
system.cpu2.op_class::SimdDiv                       0      0.00%     50.00% # Class of executed instruction
system.cpu2.op_class::SimdSqrt                      0      0.00%     50.00% # Class of executed instruction
system.cpu2.op_class::SimdFloatAdd                  1      4.55%     54.55% # Class of executed instruction
system.cpu2.op_class::SimdFloatAlu                  0      0.00%     54.55% # Class of executed instruction
system.cpu2.op_class::SimdFloatCmp                  0      0.00%     54.55% # Class of executed instruction
system.cpu2.op_class::SimdFloatCvt                  2      9.09%     63.64% # Class of executed instruction
system.cpu2.op_class::SimdFloatDiv                  1      4.55%     68.18% # Class of executed instruction
system.cpu2.op_class::SimdFloatMisc                 0      0.00%     68.18% # Class of executed instruction
system.cpu2.op_class::SimdFloatMult                 1      4.55%     72.73% # Class of executed instruction
system.cpu2.op_class::SimdFloatMultAcc              0      0.00%     72.73% # Class of executed instruction
system.cpu2.op_class::SimdFloatSqrt                 1      4.55%     77.27% # Class of executed instruction
system.cpu2.op_class::SimdReduceAdd                 0      0.00%     77.27% # Class of executed instruction
system.cpu2.op_class::SimdReduceAlu                 0      0.00%     77.27% # Class of executed instruction
system.cpu2.op_class::SimdReduceCmp                 0      0.00%     77.27% # Class of executed instruction
system.cpu2.op_class::SimdFloatReduceAdd            0      0.00%     77.27% # Class of executed instruction
system.cpu2.op_class::SimdFloatReduceCmp            0      0.00%     77.27% # Class of executed instruction
system.cpu2.op_class::SimdAes                       0      0.00%     77.27% # Class of executed instruction
system.cpu2.op_class::SimdAesMix                    0      0.00%     77.27% # Class of executed instruction
system.cpu2.op_class::SimdSha1Hash                  0      0.00%     77.27% # Class of executed instruction
system.cpu2.op_class::SimdSha1Hash2                 0      0.00%     77.27% # Class of executed instruction
system.cpu2.op_class::SimdSha256Hash                0      0.00%     77.27% # Class of executed instruction
system.cpu2.op_class::SimdSha256Hash2               0      0.00%     77.27% # Class of executed instruction
system.cpu2.op_class::SimdShaSigma2                 0      0.00%     77.27% # Class of executed instruction
system.cpu2.op_class::SimdShaSigma3                 0      0.00%     77.27% # Class of executed instruction
system.cpu2.op_class::SimdPredAlu                   0      0.00%     77.27% # Class of executed instruction
system.cpu2.op_class::MemRead                       1      4.55%     81.82% # Class of executed instruction
system.cpu2.op_class::MemWrite                      0      0.00%     81.82% # Class of executed instruction
system.cpu2.op_class::FloatMemRead                  4     18.18%    100.00% # Class of executed instruction
system.cpu2.op_class::FloatMemWrite                 0      0.00%    100.00% # Class of executed instruction
system.cpu2.op_class::IprAccess                     0      0.00%    100.00% # Class of executed instruction
system.cpu2.op_class::InstPrefetch                  0      0.00%    100.00% # Class of executed instruction
system.cpu2.op_class::total                        22                       # Class of executed instruction
system.cpu2.workload.numSyscalls                    0                       # Number of system calls
system.cpu3.Branches                                3                       # Number of branches fetched
system.cpu3.committedInsts                         14                       # Number of instructions committed
system.cpu3.committedOps                           22                       # Number of ops (including micro ops) committed
system.cpu3.idle_fraction                           0                       # Percentage of idle cycles
system.cpu3.l2bus.snoop_filter.hit_multi_requests            0                       # Number of requests hitting in the snoop filter with multiple (>1) holders of the requested data.
system.cpu3.l2bus.snoop_filter.hit_multi_snoops            0                       # Number of snoops hitting in the snoop filter with multiple (>1) holders of the requested data.
system.cpu3.l2bus.snoop_filter.hit_single_requests      2945980                       # Number of requests hitting in the snoop filter with a single holder of the requested data.
system.cpu3.l2bus.snoop_filter.hit_single_snoops         7937                       # Number of snoops hitting in the snoop filter with a single holder of the requested data.
system.cpu3.l2bus.snoop_filter.tot_requests      5533081                       # Total number of requests made to the snoop filter.
system.cpu3.l2bus.snoop_filter.tot_snoops         7937                       # Total number of snoops made to the snoop filter.
system.cpu3.mmucache.mmubus.snoop_filter.hit_multi_requests            0                       # Number of requests hitting in the snoop filter with multiple (>1) holders of the requested data.
system.cpu3.mmucache.mmubus.snoop_filter.hit_multi_snoops            0                       # Number of snoops hitting in the snoop filter with multiple (>1) holders of the requested data.
system.cpu3.mmucache.mmubus.snoop_filter.hit_single_requests            0                       # Number of requests hitting in the snoop filter with a single holder of the requested data.
system.cpu3.mmucache.mmubus.snoop_filter.hit_single_snoops            0                       # Number of snoops hitting in the snoop filter with a single holder of the requested data.
system.cpu3.mmucache.mmubus.snoop_filter.tot_requests            0                       # Total number of requests made to the snoop filter.
system.cpu3.mmucache.mmubus.snoop_filter.tot_snoops            0                       # Total number of snoops made to the snoop filter.
system.cpu3.not_idle_fraction                       1                       # Percentage of non-idle cycles
system.cpu3.numCycles                              30                       # number of cpu cycles simulated
system.cpu3.numWorkItemsCompleted                   0                       # number of work items this cpu completed
system.cpu3.numWorkItemsStarted                     0                       # number of work items this cpu started
system.cpu3.num_busy_cycles                        30                       # Number of busy cycles
system.cpu3.num_cc_register_reads                  19                       # number of times the CC registers were read
system.cpu3.num_cc_register_writes                  4                       # number of times the CC registers were written
system.cpu3.num_conditional_control_insts            3                       # number of instructions that are conditional controls
system.cpu3.num_fp_alu_accesses                    11                       # Number of float alu accesses
system.cpu3.num_fp_insts                           11                       # number of float instructions
system.cpu3.num_fp_register_reads                  17                       # number of times the floating registers were read
system.cpu3.num_fp_register_writes                  9                       # number of times the floating registers were written
system.cpu3.num_func_calls                          0                       # number of times a function call or return occured
system.cpu3.num_idle_cycles                         0                       # Number of idle cycles
system.cpu3.num_int_alu_accesses                   15                       # Number of integer alu accesses
system.cpu3.num_int_insts                          15                       # number of integer instructions
system.cpu3.num_int_register_reads                 28                       # number of times the integer registers were read
system.cpu3.num_int_register_writes                 8                       # number of times the integer registers were written
system.cpu3.num_load_insts                          5                       # Number of load instructions
system.cpu3.num_mem_refs                            5                       # number of memory refs
system.cpu3.num_store_insts                         0                       # Number of store instructions
system.cpu3.num_vec_alu_accesses                    0                       # Number of vector alu accesses
system.cpu3.num_vec_insts                           0                       # number of vector instructions
system.cpu3.num_vec_register_reads                  0                       # number of times the vector registers were read
system.cpu3.num_vec_register_writes                 0                       # number of times the vector registers were written
system.cpu3.op_class::No_OpClass                    0      0.00%      0.00% # Class of executed instruction
system.cpu3.op_class::IntAlu                       11     50.00%     50.00% # Class of executed instruction
system.cpu3.op_class::IntMult                       0      0.00%     50.00% # Class of executed instruction
system.cpu3.op_class::IntDiv                        0      0.00%     50.00% # Class of executed instruction
system.cpu3.op_class::FloatAdd                      0      0.00%     50.00% # Class of executed instruction
system.cpu3.op_class::FloatCmp                      0      0.00%     50.00% # Class of executed instruction
system.cpu3.op_class::FloatCvt                      0      0.00%     50.00% # Class of executed instruction
system.cpu3.op_class::FloatMult                     0      0.00%     50.00% # Class of executed instruction
system.cpu3.op_class::FloatMultAcc                  0      0.00%     50.00% # Class of executed instruction
system.cpu3.op_class::FloatDiv                      0      0.00%     50.00% # Class of executed instruction
system.cpu3.op_class::FloatMisc                     0      0.00%     50.00% # Class of executed instruction
system.cpu3.op_class::FloatSqrt                     0      0.00%     50.00% # Class of executed instruction
system.cpu3.op_class::SimdAdd                       0      0.00%     50.00% # Class of executed instruction
system.cpu3.op_class::SimdAddAcc                    0      0.00%     50.00% # Class of executed instruction
system.cpu3.op_class::SimdAlu                       0      0.00%     50.00% # Class of executed instruction
system.cpu3.op_class::SimdCmp                       0      0.00%     50.00% # Class of executed instruction
system.cpu3.op_class::SimdCvt                       0      0.00%     50.00% # Class of executed instruction
system.cpu3.op_class::SimdMisc                      0      0.00%     50.00% # Class of executed instruction
system.cpu3.op_class::SimdMult                      0      0.00%     50.00% # Class of executed instruction
system.cpu3.op_class::SimdMultAcc                   0      0.00%     50.00% # Class of executed instruction
system.cpu3.op_class::SimdShift                     0      0.00%     50.00% # Class of executed instruction
system.cpu3.op_class::SimdShiftAcc                  0      0.00%     50.00% # Class of executed instruction
system.cpu3.op_class::SimdDiv                       0      0.00%     50.00% # Class of executed instruction
system.cpu3.op_class::SimdSqrt                      0      0.00%     50.00% # Class of executed instruction
system.cpu3.op_class::SimdFloatAdd                  1      4.55%     54.55% # Class of executed instruction
system.cpu3.op_class::SimdFloatAlu                  0      0.00%     54.55% # Class of executed instruction
system.cpu3.op_class::SimdFloatCmp                  0      0.00%     54.55% # Class of executed instruction
system.cpu3.op_class::SimdFloatCvt                  2      9.09%     63.64% # Class of executed instruction
system.cpu3.op_class::SimdFloatDiv                  1      4.55%     68.18% # Class of executed instruction
system.cpu3.op_class::SimdFloatMisc                 0      0.00%     68.18% # Class of executed instruction
system.cpu3.op_class::SimdFloatMult                 1      4.55%     72.73% # Class of executed instruction
system.cpu3.op_class::SimdFloatMultAcc              0      0.00%     72.73% # Class of executed instruction
system.cpu3.op_class::SimdFloatSqrt                 1      4.55%     77.27% # Class of executed instruction
system.cpu3.op_class::SimdReduceAdd                 0      0.00%     77.27% # Class of executed instruction
system.cpu3.op_class::SimdReduceAlu                 0      0.00%     77.27% # Class of executed instruction
system.cpu3.op_class::SimdReduceCmp                 0      0.00%     77.27% # Class of executed instruction
system.cpu3.op_class::SimdFloatReduceAdd            0      0.00%     77.27% # Class of executed instruction
system.cpu3.op_class::SimdFloatReduceCmp            0      0.00%     77.27% # Class of executed instruction
system.cpu3.op_class::SimdAes                       0      0.00%     77.27% # Class of executed instruction
system.cpu3.op_class::SimdAesMix                    0      0.00%     77.27% # Class of executed instruction
system.cpu3.op_class::SimdSha1Hash                  0      0.00%     77.27% # Class of executed instruction
system.cpu3.op_class::SimdSha1Hash2                 0      0.00%     77.27% # Class of executed instruction
system.cpu3.op_class::SimdSha256Hash                0      0.00%     77.27% # Class of executed instruction
system.cpu3.op_class::SimdSha256Hash2               0      0.00%     77.27% # Class of executed instruction
system.cpu3.op_class::SimdShaSigma2                 0      0.00%     77.27% # Class of executed instruction
system.cpu3.op_class::SimdShaSigma3                 0      0.00%     77.27% # Class of executed instruction
system.cpu3.op_class::SimdPredAlu                   0      0.00%     77.27% # Class of executed instruction
system.cpu3.op_class::MemRead                       1      4.55%     81.82% # Class of executed instruction
system.cpu3.op_class::MemWrite                      0      0.00%     81.82% # Class of executed instruction
system.cpu3.op_class::FloatMemRead                  4     18.18%    100.00% # Class of executed instruction
system.cpu3.op_class::FloatMemWrite                 0      0.00%    100.00% # Class of executed instruction
system.cpu3.op_class::IprAccess                     0      0.00%    100.00% # Class of executed instruction
system.cpu3.op_class::InstPrefetch                  0      0.00%    100.00% # Class of executed instruction
system.cpu3.op_class::total                        22                       # Class of executed instruction
system.cpu3.workload.numSyscalls                    0                       # Number of system calls
system.l3bus.snoop_filter.hit_multi_requests            0                       # Number of requests hitting in the snoop filter with multiple (>1) holders of the requested data.
system.l3bus.snoop_filter.hit_multi_snoops            0                       # Number of snoops hitting in the snoop filter with multiple (>1) holders of the requested data.
system.l3bus.snoop_filter.hit_single_requests      4679261                       # Number of requests hitting in the snoop filter with a single holder of the requested data.
system.l3bus.snoop_filter.hit_single_snoops            0                       # Number of snoops hitting in the snoop filter with a single holder of the requested data.
system.l3bus.snoop_filter.tot_requests        9367284                       # Total number of requests made to the snoop filter.
system.l3bus.snoop_filter.tot_snoops                0                       # Total number of snoops made to the snoop filter.
system.membus.snoop_filter.hit_multi_requests            0                       # Number of requests hitting in the snoop filter with multiple (>1) holders of the requested data.
system.membus.snoop_filter.hit_multi_snoops            0                       # Number of snoops hitting in the snoop filter with multiple (>1) holders of the requested data.
system.membus.snoop_filter.hit_single_requests       479866                       # Number of requests hitting in the snoop filter with a single holder of the requested data.
system.membus.snoop_filter.hit_single_snoops            0                       # Number of snoops hitting in the snoop filter with a single holder of the requested data.
system.membus.snoop_filter.tot_requests       1029375                       # Total number of requests made to the snoop filter.
system.membus.snoop_filter.tot_snoops               0                       # Total number of snoops made to the snoop filter.
system.switch_cpus0.cc_regfile_reads        147102158                       # number of cc regfile reads
system.switch_cpus0.cc_regfile_writes        71477968                       # number of cc regfile writes
system.switch_cpus0.committedInsts          250000000                       # Number of Instructions Simulated
system.switch_cpus0.committedOps            381087492                       # Number of Ops (including micro ops) Simulated
system.switch_cpus0.cpi                      0.628893                       # CPI: Cycles Per Instruction
system.switch_cpus0.cpi_total                0.628893                       # CPI: Total CPI of All Threads
system.switch_cpus0.fp_regfile_reads        410831558                       # number of floating regfile reads
system.switch_cpus0.fp_regfile_writes       196414128                       # number of floating regfile writes
system.switch_cpus0.idleCycles                  14394                       # Total number of cycles that the CPU has spent unscheduled due to idling
system.switch_cpus0.iew.branchMispredicts       276387                       # Number of branch mispredicts detected at execute
system.switch_cpus0.iew.exec_branches        25806358                       # Number of branches executed
system.switch_cpus0.iew.exec_nop                    0                       # number of nop insts executed
system.switch_cpus0.iew.exec_rate            2.552232                       # Inst execution rate
system.switch_cpus0.iew.exec_refs            81101420                       # number of memory reference insts executed
system.switch_cpus0.iew.exec_stores          17191974                       # Number of stores executed
system.switch_cpus0.iew.exec_swp                    0                       # number of swp insts executed
system.switch_cpus0.iew.iewBlockCycles       47167724                       # Number of cycles IEW is blocking
system.switch_cpus0.iew.iewDispLoadInsts     64921267                       # Number of dispatched load instructions
system.switch_cpus0.iew.iewDispNonSpecInsts            0                       # Number of dispatched non-speculative instructions
system.switch_cpus0.iew.iewDispSquashedInsts          905                       # Number of squashed instructions skipped by dispatch
system.switch_cpus0.iew.iewDispStoreInsts     17770407                       # Number of dispatched store instructions
system.switch_cpus0.iew.iewDispatchedInsts    412256869                       # Number of instructions dispatched to IQ
system.switch_cpus0.iew.iewExecLoadInsts     63909446                       # Number of load instructions executed
system.switch_cpus0.iew.iewExecSquashedInsts       457871                       # Number of squashed instructions skipped in execute
system.switch_cpus0.iew.iewExecutedInsts    401270043                       # Number of executed instructions
system.switch_cpus0.iew.iewIQFullEvents        820774                       # Number of times the IQ has become full, causing a stall
system.switch_cpus0.iew.iewIdleCycles               0                       # Number of cycles IEW is idle
system.switch_cpus0.iew.iewLSQFullEvents       118196                       # Number of times the LSQ has become full, causing a stall
system.switch_cpus0.iew.iewSquashCycles        275636                       # Number of cycles IEW is squashing
system.switch_cpus0.iew.iewUnblockCycles      1484702                       # Number of cycles IEW is unblocking
system.switch_cpus0.iew.memOrderViolationEvents          586                       # Number of memory order violations
system.switch_cpus0.iew.predictedNotTakenIncorrect       154258                       # Number of branches that were predicted not taken incorrectly
system.switch_cpus0.iew.predictedTakenIncorrect       122129                       # Number of branches that were predicted taken incorrectly
system.switch_cpus0.iew.wb_consumers        560745152                       # num instructions consuming a value
system.switch_cpus0.iew.wb_count            401108350                       # cumulative count of insts written-back
system.switch_cpus0.iew.wb_fanout            0.555958                       # average fanout of values written-back
system.switch_cpus0.iew.wb_producers        311750624                       # num instructions producing a value
system.switch_cpus0.iew.wb_rate              2.551203                       # insts written-back per cycle
system.switch_cpus0.iew.wb_sent             401180422                       # cumulative count of insts sent to commit
system.switch_cpus0.int_regfile_reads       331831602                       # number of integer regfile reads
system.switch_cpus0.int_regfile_writes      152228553                       # number of integer regfile writes
system.switch_cpus0.ipc                      1.590096                       # IPC: Instructions Per Cycle
system.switch_cpus0.ipc_total                1.590096                       # IPC: Total IPC of All Threads
system.switch_cpus0.iq.FU_type_0::No_OpClass         1603      0.00%      0.00% # Type of FU issued
system.switch_cpus0.iq.FU_type_0::IntAlu    196556934     48.93%     48.93% # Type of FU issued
system.switch_cpus0.iq.FU_type_0::IntMult      2065151      0.51%     49.44% # Type of FU issued
system.switch_cpus0.iq.FU_type_0::IntDiv            0      0.00%     49.44% # Type of FU issued
system.switch_cpus0.iq.FU_type_0::FloatAdd      4079028      1.02%     50.46% # Type of FU issued
system.switch_cpus0.iq.FU_type_0::FloatCmp            0      0.00%     50.46% # Type of FU issued
system.switch_cpus0.iq.FU_type_0::FloatCvt            0      0.00%     50.46% # Type of FU issued
system.switch_cpus0.iq.FU_type_0::FloatMult            0      0.00%     50.46% # Type of FU issued
system.switch_cpus0.iq.FU_type_0::FloatMultAcc            0      0.00%     50.46% # Type of FU issued
system.switch_cpus0.iq.FU_type_0::FloatDiv            0      0.00%     50.46% # Type of FU issued
system.switch_cpus0.iq.FU_type_0::FloatMisc            0      0.00%     50.46% # Type of FU issued
system.switch_cpus0.iq.FU_type_0::FloatSqrt            0      0.00%     50.46% # Type of FU issued
system.switch_cpus0.iq.FU_type_0::SimdAdd            0      0.00%     50.46% # Type of FU issued
system.switch_cpus0.iq.FU_type_0::SimdAddAcc            0      0.00%     50.46% # Type of FU issued
system.switch_cpus0.iq.FU_type_0::SimdAlu      5780109      1.44%     51.90% # Type of FU issued
system.switch_cpus0.iq.FU_type_0::SimdCmp            0      0.00%     51.90% # Type of FU issued
system.switch_cpus0.iq.FU_type_0::SimdCvt            0      0.00%     51.90% # Type of FU issued
system.switch_cpus0.iq.FU_type_0::SimdMisc      2220743      0.55%     52.45% # Type of FU issued
system.switch_cpus0.iq.FU_type_0::SimdMult            0      0.00%     52.45% # Type of FU issued
system.switch_cpus0.iq.FU_type_0::SimdMultAcc            0      0.00%     52.45% # Type of FU issued
system.switch_cpus0.iq.FU_type_0::SimdShift            0      0.00%     52.45% # Type of FU issued
system.switch_cpus0.iq.FU_type_0::SimdShiftAcc            0      0.00%     52.45% # Type of FU issued
system.switch_cpus0.iq.FU_type_0::SimdDiv            0      0.00%     52.45% # Type of FU issued
system.switch_cpus0.iq.FU_type_0::SimdSqrt            0      0.00%     52.45% # Type of FU issued
system.switch_cpus0.iq.FU_type_0::SimdFloatAdd     42683085     10.62%     63.07% # Type of FU issued
system.switch_cpus0.iq.FU_type_0::SimdFloatAlu            0      0.00%     63.07% # Type of FU issued
system.switch_cpus0.iq.FU_type_0::SimdFloatCmp            0      0.00%     63.07% # Type of FU issued
system.switch_cpus0.iq.FU_type_0::SimdFloatCvt     12443995      3.10%     66.17% # Type of FU issued
system.switch_cpus0.iq.FU_type_0::SimdFloatDiv      2409724      0.60%     66.77% # Type of FU issued
system.switch_cpus0.iq.FU_type_0::SimdFloatMisc            0      0.00%     66.77% # Type of FU issued
system.switch_cpus0.iq.FU_type_0::SimdFloatMult     50297593     12.52%     79.29% # Type of FU issued
system.switch_cpus0.iq.FU_type_0::SimdFloatMultAcc            0      0.00%     79.29% # Type of FU issued
system.switch_cpus0.iq.FU_type_0::SimdFloatSqrt      1963404      0.49%     79.78% # Type of FU issued
system.switch_cpus0.iq.FU_type_0::SimdReduceAdd            0      0.00%     79.78% # Type of FU issued
system.switch_cpus0.iq.FU_type_0::SimdReduceAlu            0      0.00%     79.78% # Type of FU issued
system.switch_cpus0.iq.FU_type_0::SimdReduceCmp            0      0.00%     79.78% # Type of FU issued
system.switch_cpus0.iq.FU_type_0::SimdFloatReduceAdd            0      0.00%     79.78% # Type of FU issued
system.switch_cpus0.iq.FU_type_0::SimdFloatReduceCmp            0      0.00%     79.78% # Type of FU issued
system.switch_cpus0.iq.FU_type_0::SimdAes            0      0.00%     79.78% # Type of FU issued
system.switch_cpus0.iq.FU_type_0::SimdAesMix            0      0.00%     79.78% # Type of FU issued
system.switch_cpus0.iq.FU_type_0::SimdSha1Hash            0      0.00%     79.78% # Type of FU issued
system.switch_cpus0.iq.FU_type_0::SimdSha1Hash2            0      0.00%     79.78% # Type of FU issued
system.switch_cpus0.iq.FU_type_0::SimdSha256Hash            0      0.00%     79.78% # Type of FU issued
system.switch_cpus0.iq.FU_type_0::SimdSha256Hash2            0      0.00%     79.78% # Type of FU issued
system.switch_cpus0.iq.FU_type_0::SimdShaSigma2            0      0.00%     79.78% # Type of FU issued
system.switch_cpus0.iq.FU_type_0::SimdShaSigma3            0      0.00%     79.78% # Type of FU issued
system.switch_cpus0.iq.FU_type_0::SimdPredAlu            0      0.00%     79.78% # Type of FU issued
system.switch_cpus0.iq.FU_type_0::MemRead     11406326      2.84%     82.62% # Type of FU issued
system.switch_cpus0.iq.FU_type_0::MemWrite      5411679      1.35%     83.97% # Type of FU issued
system.switch_cpus0.iq.FU_type_0::FloatMemRead     52612349     13.10%     97.06% # Type of FU issued
system.switch_cpus0.iq.FU_type_0::FloatMemWrite     11796197      2.94%    100.00% # Type of FU issued
system.switch_cpus0.iq.FU_type_0::IprAccess            0      0.00%    100.00% # Type of FU issued
system.switch_cpus0.iq.FU_type_0::InstPrefetch            0      0.00%    100.00% # Type of FU issued
system.switch_cpus0.iq.FU_type_0::total     401727920                       # Type of FU issued
system.switch_cpus0.iq.fp_alu_accesses      223757634                       # Number of floating point alu accesses
system.switch_cpus0.iq.fp_inst_queue_reads    445231057                       # Number of floating instruction queue reads
system.switch_cpus0.iq.fp_inst_queue_wakeup_accesses    221087846                       # Number of floating instruction queue wakeup accesses
system.switch_cpus0.iq.fp_inst_queue_writes    244085036                       # Number of floating instruction queue writes
system.switch_cpus0.iq.fu_busy_cnt            3236111                       # FU busy when requested
system.switch_cpus0.iq.fu_busy_rate          0.008055                       # FU busy rate (busy events/executed inst)
system.switch_cpus0.iq.fu_full::No_OpClass            0      0.00%      0.00% # attempts to use FU when none available
system.switch_cpus0.iq.fu_full::IntAlu          53580      1.66%      1.66% # attempts to use FU when none available
system.switch_cpus0.iq.fu_full::IntMult             0      0.00%      1.66% # attempts to use FU when none available
system.switch_cpus0.iq.fu_full::IntDiv              0      0.00%      1.66% # attempts to use FU when none available
system.switch_cpus0.iq.fu_full::FloatAdd            0      0.00%      1.66% # attempts to use FU when none available
system.switch_cpus0.iq.fu_full::FloatCmp            0      0.00%      1.66% # attempts to use FU when none available
system.switch_cpus0.iq.fu_full::FloatCvt            0      0.00%      1.66% # attempts to use FU when none available
system.switch_cpus0.iq.fu_full::FloatMult            0      0.00%      1.66% # attempts to use FU when none available
system.switch_cpus0.iq.fu_full::FloatMultAcc            0      0.00%      1.66% # attempts to use FU when none available
system.switch_cpus0.iq.fu_full::FloatDiv            0      0.00%      1.66% # attempts to use FU when none available
system.switch_cpus0.iq.fu_full::FloatMisc            0      0.00%      1.66% # attempts to use FU when none available
system.switch_cpus0.iq.fu_full::FloatSqrt            0      0.00%      1.66% # attempts to use FU when none available
system.switch_cpus0.iq.fu_full::SimdAdd             0      0.00%      1.66% # attempts to use FU when none available
system.switch_cpus0.iq.fu_full::SimdAddAcc            0      0.00%      1.66% # attempts to use FU when none available
system.switch_cpus0.iq.fu_full::SimdAlu         43625      1.35%      3.00% # attempts to use FU when none available
system.switch_cpus0.iq.fu_full::SimdCmp             0      0.00%      3.00% # attempts to use FU when none available
system.switch_cpus0.iq.fu_full::SimdCvt             0      0.00%      3.00% # attempts to use FU when none available
system.switch_cpus0.iq.fu_full::SimdMisc            0      0.00%      3.00% # attempts to use FU when none available
system.switch_cpus0.iq.fu_full::SimdMult            0      0.00%      3.00% # attempts to use FU when none available
system.switch_cpus0.iq.fu_full::SimdMultAcc            0      0.00%      3.00% # attempts to use FU when none available
system.switch_cpus0.iq.fu_full::SimdShift            0      0.00%      3.00% # attempts to use FU when none available
system.switch_cpus0.iq.fu_full::SimdShiftAcc            0      0.00%      3.00% # attempts to use FU when none available
system.switch_cpus0.iq.fu_full::SimdDiv             0      0.00%      3.00% # attempts to use FU when none available
system.switch_cpus0.iq.fu_full::SimdSqrt            0      0.00%      3.00% # attempts to use FU when none available
system.switch_cpus0.iq.fu_full::SimdFloatAdd       341141     10.54%     13.55% # attempts to use FU when none available
system.switch_cpus0.iq.fu_full::SimdFloatAlu            0      0.00%     13.55% # attempts to use FU when none available
system.switch_cpus0.iq.fu_full::SimdFloatCmp            0      0.00%     13.55% # attempts to use FU when none available
system.switch_cpus0.iq.fu_full::SimdFloatCvt            0      0.00%     13.55% # attempts to use FU when none available
system.switch_cpus0.iq.fu_full::SimdFloatDiv            0      0.00%     13.55% # attempts to use FU when none available
system.switch_cpus0.iq.fu_full::SimdFloatMisc            0      0.00%     13.55% # attempts to use FU when none available
system.switch_cpus0.iq.fu_full::SimdFloatMult       323070      9.98%     23.53% # attempts to use FU when none available
system.switch_cpus0.iq.fu_full::SimdFloatMultAcc            0      0.00%     23.53% # attempts to use FU when none available
system.switch_cpus0.iq.fu_full::SimdFloatSqrt            0      0.00%     23.53% # attempts to use FU when none available
system.switch_cpus0.iq.fu_full::SimdReduceAdd            0      0.00%     23.53% # attempts to use FU when none available
system.switch_cpus0.iq.fu_full::SimdReduceAlu            0      0.00%     23.53% # attempts to use FU when none available
system.switch_cpus0.iq.fu_full::SimdReduceCmp            0      0.00%     23.53% # attempts to use FU when none available
system.switch_cpus0.iq.fu_full::SimdFloatReduceAdd            0      0.00%     23.53% # attempts to use FU when none available
system.switch_cpus0.iq.fu_full::SimdFloatReduceCmp            0      0.00%     23.53% # attempts to use FU when none available
system.switch_cpus0.iq.fu_full::SimdAes             0      0.00%     23.53% # attempts to use FU when none available
system.switch_cpus0.iq.fu_full::SimdAesMix            0      0.00%     23.53% # attempts to use FU when none available
system.switch_cpus0.iq.fu_full::SimdSha1Hash            0      0.00%     23.53% # attempts to use FU when none available
system.switch_cpus0.iq.fu_full::SimdSha1Hash2            0      0.00%     23.53% # attempts to use FU when none available
system.switch_cpus0.iq.fu_full::SimdSha256Hash            0      0.00%     23.53% # attempts to use FU when none available
system.switch_cpus0.iq.fu_full::SimdSha256Hash2            0      0.00%     23.53% # attempts to use FU when none available
system.switch_cpus0.iq.fu_full::SimdShaSigma2            0      0.00%     23.53% # attempts to use FU when none available
system.switch_cpus0.iq.fu_full::SimdShaSigma3            0      0.00%     23.53% # attempts to use FU when none available
system.switch_cpus0.iq.fu_full::SimdPredAlu            0      0.00%     23.53% # attempts to use FU when none available
system.switch_cpus0.iq.fu_full::MemRead        492451     15.22%     38.75% # attempts to use FU when none available
system.switch_cpus0.iq.fu_full::MemWrite       374233     11.56%     50.31% # attempts to use FU when none available
system.switch_cpus0.iq.fu_full::FloatMemRead       826176     25.53%     75.84% # attempts to use FU when none available
system.switch_cpus0.iq.fu_full::FloatMemWrite       781835     24.16%    100.00% # attempts to use FU when none available
system.switch_cpus0.iq.fu_full::IprAccess            0      0.00%    100.00% # attempts to use FU when none available
system.switch_cpus0.iq.fu_full::InstPrefetch            0      0.00%    100.00% # attempts to use FU when none available
system.switch_cpus0.iq.int_alu_accesses     181204794                       # Number of integer alu accesses
system.switch_cpus0.iq.int_inst_queue_reads    518754751                       # Number of integer instruction queue reads
system.switch_cpus0.iq.int_inst_queue_wakeup_accesses    180020504                       # Number of integer instruction queue wakeup accesses
system.switch_cpus0.iq.int_inst_queue_writes    199341684                       # Number of integer instruction queue writes
system.switch_cpus0.iq.iqInstsAdded         412256869                       # Number of instructions added to the IQ (excludes non-spec)
system.switch_cpus0.iq.iqInstsIssued        401727920                       # Number of instructions issued
system.switch_cpus0.iq.iqSquashedInstsExamined     31169265                       # Number of squashed instructions iterated over during squash; mainly for profiling
system.switch_cpus0.iq.iqSquashedInstsIssued        85064                       # Number of squashed instructions issued
system.switch_cpus0.iq.iqSquashedOperandsExamined     32375995                       # Number of squashed operands that are examined and possibly removed from graph
system.switch_cpus0.iq.issued_per_cycle::samples    157208799                       # Number of insts issued each cycle
system.switch_cpus0.iq.issued_per_cycle::mean     2.555378                       # Number of insts issued each cycle
system.switch_cpus0.iq.issued_per_cycle::stdev     2.587017                       # Number of insts issued each cycle
system.switch_cpus0.iq.issued_per_cycle::underflows            0      0.00%      0.00% # Number of insts issued each cycle
system.switch_cpus0.iq.issued_per_cycle::0     59409420     37.79%     37.79% # Number of insts issued each cycle
system.switch_cpus0.iq.issued_per_cycle::1     11987186      7.63%     45.42% # Number of insts issued each cycle
system.switch_cpus0.iq.issued_per_cycle::2     14238546      9.06%     54.47% # Number of insts issued each cycle
system.switch_cpus0.iq.issued_per_cycle::3     14295913      9.09%     63.57% # Number of insts issued each cycle
system.switch_cpus0.iq.issued_per_cycle::4     17262193     10.98%     74.55% # Number of insts issued each cycle
system.switch_cpus0.iq.issued_per_cycle::5     13881844      8.83%     83.38% # Number of insts issued each cycle
system.switch_cpus0.iq.issued_per_cycle::6     11292003      7.18%     90.56% # Number of insts issued each cycle
system.switch_cpus0.iq.issued_per_cycle::7      6567659      4.18%     94.74% # Number of insts issued each cycle
system.switch_cpus0.iq.issued_per_cycle::8      8274035      5.26%    100.00% # Number of insts issued each cycle
system.switch_cpus0.iq.issued_per_cycle::overflows            0      0.00%    100.00% # Number of insts issued each cycle
system.switch_cpus0.iq.issued_per_cycle::min_value            0                       # Number of insts issued each cycle
system.switch_cpus0.iq.issued_per_cycle::max_value            8                       # Number of insts issued each cycle
system.switch_cpus0.iq.issued_per_cycle::total    157208799                       # Number of insts issued each cycle
system.switch_cpus0.iq.rate                  2.555144                       # Inst issue rate
system.switch_cpus0.iq.vec_alu_accesses             0                       # Number of vector alu accesses
system.switch_cpus0.iq.vec_inst_queue_reads            0                       # Number of vector instruction queue reads
system.switch_cpus0.iq.vec_inst_queue_wakeup_accesses            0                       # Number of vector instruction queue wakeup accesses
system.switch_cpus0.iq.vec_inst_queue_writes            0                       # Number of vector instruction queue writes
system.switch_cpus0.memDep0.conflictingLoads      5002204                       # Number of conflicting loads.
system.switch_cpus0.memDep0.conflictingStores       558623                       # Number of conflicting stores.
system.switch_cpus0.memDep0.insertedLoads     64921267                       # Number of loads inserted to the mem dependence unit.
system.switch_cpus0.memDep0.insertedStores     17770407                       # Number of stores inserted to the mem dependence unit.
system.switch_cpus0.misc_regfile_reads      156303038                       # number of misc regfile reads
system.switch_cpus0.misc_regfile_writes             1                       # number of misc regfile writes
system.switch_cpus0.numCycles               157223193                       # number of cpu cycles simulated
system.switch_cpus0.numWorkItemsCompleted            0                       # number of work items this cpu completed
system.switch_cpus0.numWorkItemsStarted             0                       # number of work items this cpu started
system.switch_cpus0.timesIdled                     71                       # Number of times that the entire CPU went into an idle state and unscheduled itself
system.switch_cpus1.cc_regfile_reads        146973089                       # number of cc regfile reads
system.switch_cpus1.cc_regfile_writes        71414731                       # number of cc regfile writes
system.switch_cpus1.committedInsts          249779869                       # Number of Instructions Simulated
system.switch_cpus1.committedOps            380751454                       # Number of Ops (including micro ops) Simulated
system.switch_cpus1.cpi                      0.629447                       # CPI: Cycles Per Instruction
system.switch_cpus1.cpi_total                0.629447                       # CPI: Total CPI of All Threads
system.switch_cpus1.fp_regfile_reads        410471581                       # number of floating regfile reads
system.switch_cpus1.fp_regfile_writes       196242101                       # number of floating regfile writes
system.switch_cpus1.idleCycles                  14376                       # Total number of cycles that the CPU has spent unscheduled due to idling
system.switch_cpus1.iew.branchMispredicts       276133                       # Number of branch mispredicts detected at execute
system.switch_cpus1.iew.exec_branches        25783640                       # Number of branches executed
system.switch_cpus1.iew.exec_nop                    0                       # number of nop insts executed
system.switch_cpus1.iew.exec_rate            2.549989                       # Inst execution rate
system.switch_cpus1.iew.exec_refs            81029820                       # number of memory reference insts executed
system.switch_cpus1.iew.exec_stores          17176443                       # Number of stores executed
system.switch_cpus1.iew.exec_swp                    0                       # number of swp insts executed
system.switch_cpus1.iew.iewBlockCycles       47223851                       # Number of cycles IEW is blocking
system.switch_cpus1.iew.iewDispLoadInsts     64864574                       # Number of dispatched load instructions
system.switch_cpus1.iew.iewDispNonSpecInsts            0                       # Number of dispatched non-speculative instructions
system.switch_cpus1.iew.iewDispSquashedInsts          901                       # Number of squashed instructions skipped by dispatch
system.switch_cpus1.iew.iewDispStoreInsts     17754470                       # Number of dispatched store instructions
system.switch_cpus1.iew.iewDispatchedInsts    411895826                       # Number of instructions dispatched to IQ
system.switch_cpus1.iew.iewExecLoadInsts     63853377                       # Number of load instructions executed
system.switch_cpus1.iew.iewExecSquashedInsts       457541                       # Number of squashed instructions skipped in execute
system.switch_cpus1.iew.iewExecutedInsts    400917371                       # Number of executed instructions
system.switch_cpus1.iew.iewIQFullEvents        821390                       # Number of times the IQ has become full, causing a stall
system.switch_cpus1.iew.iewIdleCycles               0                       # Number of cycles IEW is idle
system.switch_cpus1.iew.iewLSQFullEvents       116896                       # Number of times the LSQ has become full, causing a stall
system.switch_cpus1.iew.iewSquashCycles        275431                       # Number of cycles IEW is squashing
system.switch_cpus1.iew.iewUnblockCycles      1484694                       # Number of cycles IEW is unblocking
system.switch_cpus1.iew.memOrderViolationEvents          635                       # Number of memory order violations
system.switch_cpus1.iew.predictedNotTakenIncorrect       154113                       # Number of branches that were predicted not taken incorrectly
system.switch_cpus1.iew.predictedTakenIncorrect       122020                       # Number of branches that were predicted taken incorrectly
system.switch_cpus1.iew.wb_consumers        560241255                       # num instructions consuming a value
system.switch_cpus1.iew.wb_count            400755772                       # cumulative count of insts written-back
system.switch_cpus1.iew.wb_fanout            0.555958                       # average fanout of values written-back
system.switch_cpus1.iew.wb_producers        311470710                       # num instructions producing a value
system.switch_cpus1.iew.wb_rate              2.548961                       # insts written-back per cycle
system.switch_cpus1.iew.wb_sent             400827684                       # cumulative count of insts sent to commit
system.switch_cpus1.int_regfile_reads       331538003                       # number of integer regfile reads
system.switch_cpus1.int_regfile_writes      152094480                       # number of integer regfile writes
system.switch_cpus1.ipc                      1.588696                       # IPC: Instructions Per Cycle
system.switch_cpus1.ipc_total                1.588696                       # IPC: Total IPC of All Threads
system.switch_cpus1.iq.FU_type_0::No_OpClass         1600      0.00%      0.00% # Type of FU issued
system.switch_cpus1.iq.FU_type_0::IntAlu    196384079     48.93%     48.93% # Type of FU issued
system.switch_cpus1.iq.FU_type_0::IntMult      2063361      0.51%     49.44% # Type of FU issued
system.switch_cpus1.iq.FU_type_0::IntDiv            0      0.00%     49.44% # Type of FU issued
system.switch_cpus1.iq.FU_type_0::FloatAdd      4075464      1.02%     50.46% # Type of FU issued
system.switch_cpus1.iq.FU_type_0::FloatCmp            0      0.00%     50.46% # Type of FU issued
system.switch_cpus1.iq.FU_type_0::FloatCvt            0      0.00%     50.46% # Type of FU issued
system.switch_cpus1.iq.FU_type_0::FloatMult            0      0.00%     50.46% # Type of FU issued
system.switch_cpus1.iq.FU_type_0::FloatMultAcc            0      0.00%     50.46% # Type of FU issued
system.switch_cpus1.iq.FU_type_0::FloatDiv            0      0.00%     50.46% # Type of FU issued
system.switch_cpus1.iq.FU_type_0::FloatMisc            0      0.00%     50.46% # Type of FU issued
system.switch_cpus1.iq.FU_type_0::FloatSqrt            0      0.00%     50.46% # Type of FU issued
system.switch_cpus1.iq.FU_type_0::SimdAdd            0      0.00%     50.46% # Type of FU issued
system.switch_cpus1.iq.FU_type_0::SimdAddAcc            0      0.00%     50.46% # Type of FU issued
system.switch_cpus1.iq.FU_type_0::SimdAlu      5774971      1.44%     51.90% # Type of FU issued
system.switch_cpus1.iq.FU_type_0::SimdCmp            0      0.00%     51.90% # Type of FU issued
system.switch_cpus1.iq.FU_type_0::SimdCvt            0      0.00%     51.90% # Type of FU issued
system.switch_cpus1.iq.FU_type_0::SimdMisc      2218658      0.55%     52.45% # Type of FU issued
system.switch_cpus1.iq.FU_type_0::SimdMult            0      0.00%     52.45% # Type of FU issued
system.switch_cpus1.iq.FU_type_0::SimdMultAcc            0      0.00%     52.45% # Type of FU issued
system.switch_cpus1.iq.FU_type_0::SimdShift            0      0.00%     52.45% # Type of FU issued
system.switch_cpus1.iq.FU_type_0::SimdShiftAcc            0      0.00%     52.45% # Type of FU issued
system.switch_cpus1.iq.FU_type_0::SimdDiv            0      0.00%     52.45% # Type of FU issued
system.switch_cpus1.iq.FU_type_0::SimdSqrt            0      0.00%     52.45% # Type of FU issued
system.switch_cpus1.iq.FU_type_0::SimdFloatAdd     42645645     10.62%     63.07% # Type of FU issued
system.switch_cpus1.iq.FU_type_0::SimdFloatAlu            0      0.00%     63.07% # Type of FU issued
system.switch_cpus1.iq.FU_type_0::SimdFloatCmp            0      0.00%     63.07% # Type of FU issued
system.switch_cpus1.iq.FU_type_0::SimdFloatCvt     12433045      3.10%     66.17% # Type of FU issued
system.switch_cpus1.iq.FU_type_0::SimdFloatDiv      2407611      0.60%     66.77% # Type of FU issued
system.switch_cpus1.iq.FU_type_0::SimdFloatMisc            0      0.00%     66.77% # Type of FU issued
system.switch_cpus1.iq.FU_type_0::SimdFloatMult     50253871     12.52%     79.29% # Type of FU issued
system.switch_cpus1.iq.FU_type_0::SimdFloatMultAcc            0      0.00%     79.29% # Type of FU issued
system.switch_cpus1.iq.FU_type_0::SimdFloatSqrt      1961705      0.49%     79.78% # Type of FU issued
system.switch_cpus1.iq.FU_type_0::SimdReduceAdd            0      0.00%     79.78% # Type of FU issued
system.switch_cpus1.iq.FU_type_0::SimdReduceAlu            0      0.00%     79.78% # Type of FU issued
system.switch_cpus1.iq.FU_type_0::SimdReduceCmp            0      0.00%     79.78% # Type of FU issued
system.switch_cpus1.iq.FU_type_0::SimdFloatReduceAdd            0      0.00%     79.78% # Type of FU issued
system.switch_cpus1.iq.FU_type_0::SimdFloatReduceCmp            0      0.00%     79.78% # Type of FU issued
system.switch_cpus1.iq.FU_type_0::SimdAes            0      0.00%     79.78% # Type of FU issued
system.switch_cpus1.iq.FU_type_0::SimdAesMix            0      0.00%     79.78% # Type of FU issued
system.switch_cpus1.iq.FU_type_0::SimdSha1Hash            0      0.00%     79.78% # Type of FU issued
[...]
system.switch_cpus3.commit.numCommittedDist::stdev     3.218863                       # Number of insts commited each cycle
system.switch_cpus3.commit.numCommittedDist::underflows            0      0.00%      0.00% # Number of insts commited each cycle
system.switch_cpus3.commit.numCommittedDist::0     73268784     47.83%     47.83% # Number of insts commited each cycle
system.switch_cpus3.commit.numCommittedDist::1     20764813     13.55%     61.38% # Number of insts commited each cycle
system.switch_cpus3.commit.numCommittedDist::2      6055290      3.95%     65.33% # Number of insts commited each cycle
system.switch_cpus3.commit.numCommittedDist::3      6471832      4.22%     69.56% # Number of insts commited each cycle
system.switch_cpus3.commit.numCommittedDist::4      7787976      5.08%     74.64% # Number of insts commited each cycle
system.switch_cpus3.commit.numCommittedDist::5      2591740      1.69%     76.33% # Number of insts commited each cycle
system.switch_cpus3.commit.numCommittedDist::6      2567639      1.68%     78.01% # Number of insts commited each cycle
system.switch_cpus3.commit.numCommittedDist::7       471615      0.31%     78.32% # Number of insts commited each cycle
system.switch_cpus3.commit.numCommittedDist::8     33216547     21.68%    100.00% # Number of insts commited each cycle
system.switch_cpus3.commit.numCommittedDist::overflows            0      0.00%    100.00% # Number of insts commited each cycle
system.switch_cpus3.commit.numCommittedDist::min_value            0                       # Number of insts commited each cycle
system.switch_cpus3.commit.numCommittedDist::max_value            8                       # Number of insts commited each cycle
system.switch_cpus3.commit.numCommittedDist::total    153196236                       # Number of insts commited each cycle
system.switch_cpus3.commit.instsCommitted    249838213                       # Number of instructions committed
system.switch_cpus3.commit.opsCommitted     380841008                       # Number of ops (including micro ops) committed
system.switch_cpus3.commit.memRefs           75190358                       # Number of memory references committed
system.switch_cpus3.commit.loads             61097287                       # Number of loads committed
system.switch_cpus3.commit.amos                     0                       # Number of atomic instructions committed
system.switch_cpus3.commit.membars                  0                       # Number of memory barriers committed
system.switch_cpus3.commit.branches          24510101                       # Number of branches committed
system.switch_cpus3.commit.vector                   0                       # Number of committed Vector instructions.
system.switch_cpus3.commit.floating         213215536                       # Number of committed floating point instructions.
system.switch_cpus3.commit.integer          230101757                       # Number of committed integer instructions.
system.switch_cpus3.commit.functionCalls       283516                       # Number of function calls committed.
system.switch_cpus3.commit.committedInstType_0::No_OpClass         1372      0.00%      0.00% # Class of committed instruction
system.switch_cpus3.commit.committedInstType_0::IntAlu    185360765     48.67%     48.67% # Class of committed instruction
system.switch_cpus3.commit.committedInstType_0::IntMult      1963494      0.52%     49.19% # Class of committed instruction
system.switch_cpus3.commit.committedInstType_0::IntDiv            0      0.00%     49.19% # Class of committed instruction
system.switch_cpus3.commit.committedInstType_0::FloatAdd      3403088      0.89%     50.08% # Class of committed instruction
system.switch_cpus3.commit.committedInstType_0::FloatCmp            0      0.00%     50.08% # Class of committed instruction
system.switch_cpus3.commit.committedInstType_0::FloatCvt            0      0.00%     50.08% # Class of committed instruction
system.switch_cpus3.commit.committedInstType_0::FloatMult            0      0.00%     50.08% # Class of committed instruction
system.switch_cpus3.commit.committedInstType_0::FloatMultAcc            0      0.00%     50.08% # Class of committed instruction
system.switch_cpus3.commit.committedInstType_0::FloatDiv            0      0.00%     50.08% # Class of committed instruction
system.switch_cpus3.commit.committedInstType_0::FloatMisc            0      0.00%     50.08% # Class of committed instruction
system.switch_cpus3.commit.committedInstType_0::FloatSqrt            0      0.00%     50.08% # Class of committed instruction
system.switch_cpus3.commit.committedInstType_0::SimdAdd            0      0.00%     50.08% # Class of committed instruction
system.switch_cpus3.commit.committedInstType_0::SimdAddAcc            0      0.00%     50.08% # Class of committed instruction
system.switch_cpus3.commit.committedInstType_0::SimdAlu      5131506      1.35%     51.43% # Class of committed instruction
system.switch_cpus3.commit.committedInstType_0::SimdCmp            0      0.00%     51.43% # Class of committed instruction
system.switch_cpus3.commit.committedInstType_0::SimdCvt            0      0.00%     51.43% # Class of committed instruction
system.switch_cpus3.commit.committedInstType_0::SimdMisc      1984612      0.52%     51.95% # Class of committed instruction
system.switch_cpus3.commit.committedInstType_0::SimdMult            0      0.00%     51.95% # Class of committed instruction
system.switch_cpus3.commit.committedInstType_0::SimdMultAcc            0      0.00%     51.95% # Class of committed instruction
system.switch_cpus3.commit.committedInstType_0::SimdShift            0      0.00%     51.95% # Class of committed instruction
system.switch_cpus3.commit.committedInstType_0::SimdShiftAcc            0      0.00%     51.95% # Class of committed instruction
system.switch_cpus3.commit.committedInstType_0::SimdDiv            0      0.00%     51.95% # Class of committed instruction
system.switch_cpus3.commit.committedInstType_0::SimdSqrt            0      0.00%     51.95% # Class of committed instruction
system.switch_cpus3.commit.committedInstType_0::SimdFloatAdd     42206201     11.08%     63.03% # Class of committed instruction
system.switch_cpus3.commit.committedInstType_0::SimdFloatAlu            0      0.00%     63.03% # Class of committed instruction
system.switch_cpus3.commit.committedInstType_0::SimdFloatCmp            0      0.00%     63.03% # Class of committed instruction
system.switch_cpus3.commit.committedInstType_0::SimdFloatCvt     12170229      3.20%     66.23% # Class of committed instruction
system.switch_cpus3.commit.committedInstType_0::SimdFloatDiv      2278732      0.60%     66.83% # Class of committed instruction
system.switch_cpus3.commit.committedInstType_0::SimdFloatMisc            0      0.00%     66.83% # Class of committed instruction
system.switch_cpus3.commit.committedInstType_0::SimdFloatMult     49188530     12.92%     79.74% # Class of committed instruction
system.switch_cpus3.commit.committedInstType_0::SimdFloatMultAcc            0      0.00%     79.74% # Class of committed instruction
system.switch_cpus3.commit.committedInstType_0::SimdFloatSqrt      1962121      0.52%     80.26% # Class of committed instruction
system.switch_cpus3.commit.committedInstType_0::SimdReduceAdd            0      0.00%     80.26% # Class of committed instruction
system.switch_cpus3.commit.committedInstType_0::SimdReduceAlu            0      0.00%     80.26% # Class of committed instruction
system.switch_cpus3.commit.committedInstType_0::SimdReduceCmp            0      0.00%     80.26% # Class of committed instruction
system.switch_cpus3.commit.committedInstType_0::SimdFloatReduceAdd            0      0.00%     80.26% # Class of committed instruction
system.switch_cpus3.commit.committedInstType_0::SimdFloatReduceCmp            0      0.00%     80.26% # Class of committed instruction
system.switch_cpus3.commit.committedInstType_0::SimdAes            0      0.00%     80.26% # Class of committed instruction
system.switch_cpus3.commit.committedInstType_0::SimdAesMix            0      0.00%     80.26% # Class of committed instruction
system.switch_cpus3.commit.committedInstType_0::SimdSha1Hash            0      0.00%     80.26% # Class of committed instruction
system.switch_cpus3.commit.committedInstType_0::SimdSha1Hash2            0      0.00%     80.26% # Class of committed instruction
system.switch_cpus3.commit.committedInstType_0::SimdSha256Hash            0      0.00%     80.26% # Class of committed instruction
system.switch_cpus3.commit.committedInstType_0::SimdSha256Hash2            0      0.00%     80.26% # Class of committed instruction
system.switch_cpus3.commit.committedInstType_0::SimdShaSigma2            0      0.00%     80.26% # Class of committed instruction
system.switch_cpus3.commit.committedInstType_0::SimdShaSigma3            0      0.00%     80.26% # Class of committed instruction
system.switch_cpus3.commit.committedInstType_0::SimdPredAlu            0      0.00%     80.26% # Class of committed instruction
system.switch_cpus3.commit.committedInstType_0::MemRead     10723973      2.82%     83.07% # Class of committed instruction
system.switch_cpus3.commit.committedInstType_0::MemWrite      3973340      1.04%     84.12% # Class of committed instruction
system.switch_cpus3.commit.committedInstType_0::FloatMemRead     50373314     13.23%     97.34% # Class of committed instruction
system.switch_cpus3.commit.committedInstType_0::FloatMemWrite     10119731      2.66%    100.00% # Class of committed instruction
system.switch_cpus3.commit.committedInstType_0::IprAccess            0      0.00%    100.00% # Class of committed instruction
system.switch_cpus3.commit.committedInstType_0::InstPrefetch            0      0.00%    100.00% # Class of committed instruction
system.switch_cpus3.commit.committedInstType_0::total    380841008                       # Class of committed instruction
system.switch_cpus3.commit.commitEligibleSamples     33216547                       # number cycles where commit BW limit reached
system.switch_cpus3.decode.idleCycles        10891198                       # Number of cycles decode is idle
system.switch_cpus3.decode.blockedCycles     91800313                       # Number of cycles decode is blocked
system.switch_cpus3.decode.runCycles         32722874                       # Number of cycles decode is running
system.switch_cpus3.decode.unblockCycles     21518814                       # Number of cycles decode is unblocking
system.switch_cpus3.decode.squashCycles        275525                       # Number of cycles decode is squashing
system.switch_cpus3.decode.branchResolved     11539141                       # Number of times decode resolved a  branch
system.switch_cpus3.decode.branchMispred           40                       # Number of times decode detected a branch misprediction
system.switch_cpus3.decode.decodedInsts     417021558                       # Number of instructions handled by decode
system.switch_cpus3.decode.squashedInsts          164                       # Number of squashed instructions handled by decode
system.switch_cpus3.dtb.rdAccesses           63868723                       # TLB accesses on read requests
system.switch_cpus3.dtb.wrAccesses           17181072                       # TLB accesses on write requests
system.switch_cpus3.dtb.rdMisses                73127                       # TLB misses on read requests
system.switch_cpus3.dtb.wrMisses                    1                       # TLB misses on write requests
system.switch_cpus3.dtb.walker.power_state.pwrStateResidencyTicks::UNDEFINED 16944258167946                       # Cumulative time (in ticks) in various power states
system.switch_cpus3.fetch.icacheStallCycles       273422                       # Number of cycles fetch is stalled on an Icache miss
system.switch_cpus3.fetch.insts             276938774                       # Number of instructions fetch has processed
system.switch_cpus3.fetch.branches           26947634                       # Number of branches that fetch encountered
system.switch_cpus3.fetch.predictedBranches     12650799                       # Number of branches that fetch has predicted taken
system.switch_cpus3.fetch.cycles            156659746                       # Number of cycles fetch has run and was not squashing or blocked
system.switch_cpus3.fetch.squashCycles         551130                       # Number of cycles fetch has spent squashing
system.switch_cpus3.fetch.cacheLines         31435740                       # Number of cache lines fetched
system.switch_cpus3.fetch.icacheSquashes           59                       # Number of outstanding Icache misses that were squashed
system.switch_cpus3.fetch.nisnDist::samples    157208733                       # Number of instructions fetched each cycle (Total)
system.switch_cpus3.fetch.nisnDist::mean     2.692662                       # Number of instructions fetched each cycle (Total)
system.switch_cpus3.fetch.nisnDist::stdev     3.375241                       # Number of instructions fetched each cycle (Total)
system.switch_cpus3.fetch.nisnDist::underflows            0      0.00%      0.00% # Number of instructions fetched each cycle (Total)
system.switch_cpus3.fetch.nisnDist::0        83706918     53.25%     53.25% # Number of instructions fetched each cycle (Total)
system.switch_cpus3.fetch.nisnDist::1         6156830      3.92%     57.16% # Number of instructions fetched each cycle (Total)
system.switch_cpus3.fetch.nisnDist::2         6668001      4.24%     61.40% # Number of instructions fetched each cycle (Total)
system.switch_cpus3.fetch.nisnDist::3         5652884      3.60%     65.00% # Number of instructions fetched each cycle (Total)
system.switch_cpus3.fetch.nisnDist::4         7431866      4.73%     69.73% # Number of instructions fetched each cycle (Total)
system.switch_cpus3.fetch.nisnDist::5         5221301      3.32%     73.05% # Number of instructions fetched each cycle (Total)
system.switch_cpus3.fetch.nisnDist::6         2524725      1.61%     74.65% # Number of instructions fetched each cycle (Total)
system.switch_cpus3.fetch.nisnDist::7         2893488      1.84%     76.49% # Number of instructions fetched each cycle (Total)
system.switch_cpus3.fetch.nisnDist::8        36952720     23.51%    100.00% # Number of instructions fetched each cycle (Total)
system.switch_cpus3.fetch.nisnDist::overflows            0      0.00%    100.00% # Number of instructions fetched each cycle (Total)
system.switch_cpus3.fetch.nisnDist::min_value            0                       # Number of instructions fetched each cycle (Total)
system.switch_cpus3.fetch.nisnDist::max_value            8                       # Number of instructions fetched each cycle (Total)
system.switch_cpus3.fetch.nisnDist::total    157208733                       # Number of instructions fetched each cycle (Total)
system.switch_cpus3.fetch.branchRate         0.171397                       # Number of branch fetches per cycle
system.switch_cpus3.fetch.rate               1.761437                       # Number of inst fetches per cycle
system.switch_cpus3.itb.rdAccesses                  0                       # TLB accesses on read requests
system.switch_cpus3.itb.wrAccesses           31435740                       # TLB accesses on write requests
system.switch_cpus3.itb.rdMisses                    0                       # TLB misses on read requests
system.switch_cpus3.itb.wrMisses                   10                       # TLB misses on write requests
system.switch_cpus3.itb.walker.power_state.pwrStateResidencyTicks::UNDEFINED 16944258167946                       # Cumulative time (in ticks) in various power states
system.switch_cpus3.lsq0.forwLoads             495083                       # Number of loads that had data forwarded from stores
system.switch_cpus3.lsq0.squashedLoads        3782948                       # Number of loads squashed
system.switch_cpus3.lsq0.ignoredResponses           13                       # Number of memory responses ignored because the instruction is squashed
system.switch_cpus3.lsq0.memOrderViolation          635                       # Number of memory ordering violations
system.switch_cpus3.lsq0.squashedStores       3666205                       # Number of stores squashed
system.switch_cpus3.lsq0.rescheduledLoads            0                       # Number of loads that were rescheduled
system.switch_cpus3.lsq0.blockedByCache             1                       # Number of times an access to memory failed due to the cache being blocked
system.switch_cpus3.power_state.pwrStateResidencyTicks::OFF  52355333592                       # Cumulative time (in ticks) in various power states
system.switch_cpus3.rename.squashCycles        275525                       # Number of cycles rename is squashing
system.switch_cpus3.rename.idleCycles        18194754                       # Number of cycles rename is idle
system.switch_cpus3.rename.blockCycles       57803076                       # Number of cycles rename is blocking
system.switch_cpus3.rename.serializeStallCycles            0                       # count of cycles rename stalledfor serializing inst
system.switch_cpus3.rename.runCycles         46402592                       # Number of cycles rename is running
system.switch_cpus3.rename.unblockCycles     34532777                       # Number of cycles rename is unblocking
system.switch_cpus3.rename.renamedInsts     415158291                       # Number of instructions processed by rename
system.switch_cpus3.rename.ROBFullEvents       234059                       # Number of times rename has blocked due to ROB full
system.switch_cpus3.rename.IQFullEvents      25425742                       # Number of times rename has blocked due to IQ full
system.switch_cpus3.rename.LQFullEvents       3264024                       # Number of times rename has blocked due to LQ full
system.switch_cpus3.rename.SQFullEvents          1102                       # Number of times rename has blocked due to SQ full
system.switch_cpus3.rename.renamedOperands    436068440                       # Number of destination operands rename has renamed
system.switch_cpus3.rename.lookups         1085554641                       # Number of register rename lookups that rename has made
system.switch_cpus3.rename.intLookups       344301169                       # Number of integer rename lookups
system.switch_cpus3.rename.fpLookups        429673124                       # Number of floating rename lookups
system.switch_cpus3.rename.committedMaps    400847193                       # Number of HB maps that are committed
system.switch_cpus3.rename.undoneMaps        35221108                       # Number of HB maps that are undone due to squashing
system.switch_cpus3.rename.serializing              0                       # count of serializing insts renamed
system.switch_cpus3.rename.tempSerializing            0                       # count of temporary serializing insts renamed
system.switch_cpus3.rename.skidInsts         93716433                       # count of insts added to the skid buffer
system.switch_cpus3.rob.reads               531975799                       # The number of ROB reads
system.switch_cpus3.rob.writes              828004882                       # The number of ROB writes
system.switch_cpus3.thread0.numInsts        249838213                       # Number of Instructions committed
system.switch_cpus3.thread0.numOps          380841008                       # Number of Ops committed
system.switch_cpus3.thread0.numMemRefs              0                       # Number of Memory References
system.voltage_domain.voltage                       1                       # Voltage in Volts

---------- End Simulation Statistics   ----------
