
---------- Begin Simulation Statistics ----------
final_tick                               17361258076953                       # Number of ticks from beginning of simulation (restored from checkpoints and never reset)
host_inst_rate                                 182436                       # Simulator instruction rate (inst/s)
host_mem_usage                               17112968                       # Number of bytes of host memory used
host_op_rate                                   308780                       # Simulator op (including micro ops) rate (op/s)
host_seconds                                  5462.84                       # Real time elapsed on the host
host_tick_rate                                6148716                       # Simulator tick rate (ticks/s)
sim_freq                                 1000000000000                       # Frequency of simulated ticks
sim_insts                                   996615514                       # Number of instructions simulated
sim_ops                                    1686815579                       # Number of ops (including micro ops) simulated
sim_seconds                                  0.033589                       # Number of seconds simulated
sim_ticks                                 33589427283                       # Number of ticks simulated
system.cpu0.committedInsts                         15                       # Number of instructions committed
system.cpu0.committedOps                           24                       # Number of ops (including micro ops) committed
system.cpu0.idle_fraction                           0                       # Percentage of idle cycles
system.cpu0.l2bus.snoop_filter.hit_multi_requests            3                       # Number of requests hitting in the snoop filter with multiple (>1) holders of the requested data.
system.cpu0.l2bus.snoop_filter.hit_multi_snoops            0                       # Number of snoops hitting in the snoop filter with multiple (>1) holders of the requested data.
system.cpu0.l2bus.snoop_filter.hit_single_requests      2516493                       # Number of requests hitting in the snoop filter with a single holder of the requested data.
system.cpu0.l2bus.snoop_filter.hit_single_snoops          155                       # Number of snoops hitting in the snoop filter with a single holder of the requested data.
system.cpu0.l2bus.snoop_filter.tot_requests      5033281                       # Total number of requests made to the snoop filter.
system.cpu0.l2bus.snoop_filter.tot_snoops          155                       # Total number of snoops made to the snoop filter.
system.cpu0.mmucache.mmubus.snoop_filter.hit_multi_requests            0                       # Number of requests hitting in the snoop filter with multiple (>1) holders of the requested data.
system.cpu0.mmucache.mmubus.snoop_filter.hit_multi_snoops            0                       # Number of snoops hitting in the snoop filter with multiple (>1) holders of the requested data.
system.cpu0.mmucache.mmubus.snoop_filter.hit_single_requests            0                       # Number of requests hitting in the snoop filter with a single holder of the requested data.
system.cpu0.mmucache.mmubus.snoop_filter.hit_single_snoops            0                       # Number of snoops hitting in the snoop filter with a single holder of the requested data.
system.cpu0.mmucache.mmubus.snoop_filter.tot_requests            0                       # Total number of requests made to the snoop filter.
system.cpu0.mmucache.mmubus.snoop_filter.tot_snoops            0                       # Total number of snoops made to the snoop filter.
system.cpu0.not_idle_fraction                       1                       # Percentage of non-idle cycles
system.cpu0.numCycles                              31                       # number of cpu cycles simulated
system.cpu0.numWorkItemsCompleted                   0                       # number of work items this cpu completed
system.cpu0.numWorkItemsStarted                     0                       # number of work items this cpu started
system.cpu0.num_busy_cycles                        31                       # Number of busy cycles
system.cpu0.num_cc_register_writes                  2                       # number of times the CC registers were written
system.cpu0.num_conditional_control_insts            0                       # number of instructions that are conditional controls
system.cpu0.num_fp_alu_accesses                    14                       # Number of float alu accesses
system.cpu0.num_fp_insts                           14                       # number of float instructions
system.cpu0.num_fp_register_reads                  30                       # number of times the floating registers were read
system.cpu0.num_fp_register_writes                 14                       # number of times the floating registers were written
system.cpu0.num_func_calls                          0                       # number of times a function call or return occured
system.cpu0.num_idle_cycles                         0                       # Number of idle cycles
system.cpu0.num_int_alu_accesses                   14                       # Number of integer alu accesses
system.cpu0.num_int_insts                          14                       # number of integer instructions
system.cpu0.num_int_register_reads                 26                       # number of times the integer registers were read
system.cpu0.num_int_register_writes                10                       # number of times the integer registers were written
system.cpu0.num_load_insts                          4                       # Number of load instructions
system.cpu0.num_mem_refs                            4                       # number of memory refs
system.cpu0.num_store_insts                         0                       # Number of store instructions
system.cpu0.num_vec_alu_accesses                    0                       # Number of vector alu accesses
system.cpu0.num_vec_insts                           0                       # number of vector instructions
system.cpu0.num_vec_register_reads                  0                       # number of times the vector registers were read
system.cpu0.num_vec_register_writes                 0                       # number of times the vector registers were written
system.cpu0.op_class::No_OpClass                    0      0.00%      0.00% # Class of executed instruction
system.cpu0.op_class::IntAlu                        6     25.00%     25.00% # Class of executed instruction
system.cpu0.op_class::IntMult                       0      0.00%     25.00% # Class of executed instruction
system.cpu0.op_class::IntDiv                        0      0.00%     25.00% # Class of executed instruction
system.cpu0.op_class::FloatAdd                      0      0.00%     25.00% # Class of executed instruction
system.cpu0.op_class::FloatCmp                      0      0.00%     25.00% # Class of executed instruction
system.cpu0.op_class::FloatCvt                      0      0.00%     25.00% # Class of executed instruction
system.cpu0.op_class::FloatMult                     0      0.00%     25.00% # Class of executed instruction
system.cpu0.op_class::FloatMultAcc                  0      0.00%     25.00% # Class of executed instruction
system.cpu0.op_class::FloatDiv                      0      0.00%     25.00% # Class of executed instruction
system.cpu0.op_class::FloatMisc                     0      0.00%     25.00% # Class of executed instruction
system.cpu0.op_class::FloatSqrt                     0      0.00%     25.00% # Class of executed instruction
system.cpu0.op_class::SimdAdd                       0      0.00%     25.00% # Class of executed instruction
system.cpu0.op_class::SimdAddAcc                    0      0.00%     25.00% # Class of executed instruction
system.cpu0.op_class::SimdAlu                       0      0.00%     25.00% # Class of executed instruction
system.cpu0.op_class::SimdCmp                       0      0.00%     25.00% # Class of executed instruction
system.cpu0.op_class::SimdCvt                       0      0.00%     25.00% # Class of executed instruction
system.cpu0.op_class::SimdMisc                      4     16.67%     41.67% # Class of executed instruction
system.cpu0.op_class::SimdMult                      0      0.00%     41.67% # Class of executed instruction
system.cpu0.op_class::SimdMultAcc                   0      0.00%     41.67% # Class of executed instruction
system.cpu0.op_class::SimdShift                     0      0.00%     41.67% # Class of executed instruction
system.cpu0.op_class::SimdShiftAcc                  0      0.00%     41.67% # Class of executed instruction
system.cpu0.op_class::SimdDiv                       0      0.00%     41.67% # Class of executed instruction
system.cpu0.op_class::SimdSqrt                      0      0.00%     41.67% # Class of executed instruction
system.cpu0.op_class::SimdFloatAdd                  3     12.50%     54.17% # Class of executed instruction
system.cpu0.op_class::SimdFloatAlu                  0      0.00%     54.17% # Class of executed instruction
system.cpu0.op_class::SimdFloatCmp                  0      0.00%     54.17% # Class of executed instruction
system.cpu0.op_class::SimdFloatCvt                  4     16.67%     70.83% # Class of executed instruction
system.cpu0.op_class::SimdFloatDiv                  0      0.00%     70.83% # Class of executed instruction
system.cpu0.op_class::SimdFloatMisc                 0      0.00%     70.83% # Class of executed instruction
system.cpu0.op_class::SimdFloatMult                 3     12.50%     83.33% # Class of executed instruction
system.cpu0.op_class::SimdFloatMultAcc              0      0.00%     83.33% # Class of executed instruction
system.cpu0.op_class::SimdFloatSqrt                 0      0.00%     83.33% # Class of executed instruction
system.cpu0.op_class::SimdReduceAdd                 0      0.00%     83.33% # Class of executed instruction
system.cpu0.op_class::SimdReduceAlu                 0      0.00%     83.33% # Class of executed instruction
system.cpu0.op_class::SimdReduceCmp                 0      0.00%     83.33% # Class of executed instruction
system.cpu0.op_class::SimdFloatReduceAdd            0      0.00%     83.33% # Class of executed instruction
system.cpu0.op_class::SimdFloatReduceCmp            0      0.00%     83.33% # Class of executed instruction
system.cpu0.op_class::SimdAes                       0      0.00%     83.33% # Class of executed instruction
system.cpu0.op_class::SimdAesMix                    0      0.00%     83.33% # Class of executed instruction
system.cpu0.op_class::SimdSha1Hash                  0      0.00%     83.33% # Class of executed instruction
system.cpu0.op_class::SimdSha1Hash2                 0      0.00%     83.33% # Class of executed instruction
system.cpu0.op_class::SimdSha256Hash                0      0.00%     83.33% # Class of executed instruction
system.cpu0.op_class::SimdSha256Hash2               0      0.00%     83.33% # Class of executed instruction
system.cpu0.op_class::SimdShaSigma2                 0      0.00%     83.33% # Class of executed instruction
system.cpu0.op_class::SimdShaSigma3                 0      0.00%     83.33% # Class of executed instruction
system.cpu0.op_class::SimdPredAlu                   0      0.00%     83.33% # Class of executed instruction
system.cpu0.op_class::MemRead                       4     16.67%    100.00% # Class of executed instruction
system.cpu0.op_class::MemWrite                      0      0.00%    100.00% # Class of executed instruction
system.cpu0.op_class::FloatMemRead                  0      0.00%    100.00% # Class of executed instruction
system.cpu0.op_class::FloatMemWrite                 0      0.00%    100.00% # Class of executed instruction
system.cpu0.op_class::IprAccess                     0      0.00%    100.00% # Class of executed instruction
system.cpu0.op_class::InstPrefetch                  0      0.00%    100.00% # Class of executed instruction
system.cpu0.op_class::total                        24                       # Class of executed instruction
system.cpu0.workload.numSyscalls                    0                       # Number of system calls
system.cpu1.committedInsts                         15                       # Number of instructions committed
system.cpu1.committedOps                           24                       # Number of ops (including micro ops) committed
system.cpu1.idle_fraction                           0                       # Percentage of idle cycles
system.cpu1.l2bus.snoop_filter.hit_multi_requests            3                       # Number of requests hitting in the snoop filter with multiple (>1) holders of the requested data.
system.cpu1.l2bus.snoop_filter.hit_multi_snoops            0                       # Number of snoops hitting in the snoop filter with multiple (>1) holders of the requested data.
system.cpu1.l2bus.snoop_filter.hit_single_requests      2511289                       # Number of requests hitting in the snoop filter with a single holder of the requested data.
system.cpu1.l2bus.snoop_filter.hit_single_snoops          155                       # Number of snoops hitting in the snoop filter with a single holder of the requested data.
system.cpu1.l2bus.snoop_filter.tot_requests      5022639                       # Total number of requests made to the snoop filter.
system.cpu1.l2bus.snoop_filter.tot_snoops          155                       # Total number of snoops made to the snoop filter.
system.cpu1.mmucache.mmubus.snoop_filter.hit_multi_requests            0                       # Number of requests hitting in the snoop filter with multiple (>1) holders of the requested data.
system.cpu1.mmucache.mmubus.snoop_filter.hit_multi_snoops            0                       # Number of snoops hitting in the snoop filter with multiple (>1) holders of the requested data.
system.cpu1.mmucache.mmubus.snoop_filter.hit_single_requests            0                       # Number of requests hitting in the snoop filter with a single holder of the requested data.
system.cpu1.mmucache.mmubus.snoop_filter.hit_single_snoops            0                       # Number of snoops hitting in the snoop filter with a single holder of the requested data.
system.cpu1.mmucache.mmubus.snoop_filter.tot_requests            0                       # Total number of requests made to the snoop filter.
system.cpu1.mmucache.mmubus.snoop_filter.tot_snoops            0                       # Total number of snoops made to the snoop filter.
system.cpu1.not_idle_fraction                       1                       # Percentage of non-idle cycles
system.cpu1.numCycles                              31                       # number of cpu cycles simulated
system.cpu1.numWorkItemsCompleted                   0                       # number of work items this cpu completed
system.cpu1.numWorkItemsStarted                     0                       # number of work items this cpu started
system.cpu1.num_busy_cycles                        31                       # Number of busy cycles
system.cpu1.num_cc_register_writes                  2                       # number of times the CC registers were written
system.cpu1.num_conditional_control_insts            0                       # number of instructions that are conditional controls
system.cpu1.num_fp_alu_accesses                    14                       # Number of float alu accesses
system.cpu1.num_fp_insts                           14                       # number of float instructions
system.cpu1.num_fp_register_reads                  30                       # number of times the floating registers were read
system.cpu1.num_fp_register_writes                 14                       # number of times the floating registers were written
system.cpu1.num_func_calls                          0                       # number of times a function call or return occured
system.cpu1.num_idle_cycles                         0                       # Number of idle cycles
system.cpu1.num_int_alu_accesses                   14                       # Number of integer alu accesses
system.cpu1.num_int_insts                          14                       # number of integer instructions
system.cpu1.num_int_register_reads                 26                       # number of times the integer registers were read
system.cpu1.num_int_register_writes                10                       # number of times the integer registers were written
system.cpu1.num_load_insts                          4                       # Number of load instructions
system.cpu1.num_mem_refs                            4                       # number of memory refs
system.cpu1.num_store_insts                         0                       # Number of store instructions
system.cpu1.num_vec_alu_accesses                    0                       # Number of vector alu accesses
system.cpu1.num_vec_insts                           0                       # number of vector instructions
system.cpu1.num_vec_register_reads                  0                       # number of times the vector registers were read
system.cpu1.num_vec_register_writes                 0                       # number of times the vector registers were written
system.cpu1.op_class::No_OpClass                    0      0.00%      0.00% # Class of executed instruction
system.cpu1.op_class::IntAlu                        6     25.00%     25.00% # Class of executed instruction
system.cpu1.op_class::IntMult                       0      0.00%     25.00% # Class of executed instruction
system.cpu1.op_class::IntDiv                        0      0.00%     25.00% # Class of executed instruction
system.cpu1.op_class::FloatAdd                      0      0.00%     25.00% # Class of executed instruction
system.cpu1.op_class::FloatCmp                      0      0.00%     25.00% # Class of executed instruction
system.cpu1.op_class::FloatCvt                      0      0.00%     25.00% # Class of executed instruction
system.cpu1.op_class::FloatMult                     0      0.00%     25.00% # Class of executed instruction
system.cpu1.op_class::FloatMultAcc                  0      0.00%     25.00% # Class of executed instruction
system.cpu1.op_class::FloatDiv                      0      0.00%     25.00% # Class of executed instruction
system.cpu1.op_class::FloatMisc                     0      0.00%     25.00% # Class of executed instruction
system.cpu1.op_class::FloatSqrt                     0      0.00%     25.00% # Class of executed instruction
system.cpu1.op_class::SimdAdd                       0      0.00%     25.00% # Class of executed instruction
system.cpu1.op_class::SimdAddAcc                    0      0.00%     25.00% # Class of executed instruction
system.cpu1.op_class::SimdAlu                       0      0.00%     25.00% # Class of executed instruction
system.cpu1.op_class::SimdCmp                       0      0.00%     25.00% # Class of executed instruction
system.cpu1.op_class::SimdCvt                       0      0.00%     25.00% # Class of executed instruction
system.cpu1.op_class::SimdMisc                      4     16.67%     41.67% # Class of executed instruction
system.cpu1.op_class::SimdMult                      0      0.00%     41.67% # Class of executed instruction
system.cpu1.op_class::SimdMultAcc                   0      0.00%     41.67% # Class of executed instruction
system.cpu1.op_class::SimdShift                     0      0.00%     41.67% # Class of executed instruction
system.cpu1.op_class::SimdShiftAcc                  0      0.00%     41.67% # Class of executed instruction
system.cpu1.op_class::SimdDiv                       0      0.00%     41.67% # Class of executed instruction
system.cpu1.op_class::SimdSqrt                      0      0.00%     41.67% # Class of executed instruction
system.cpu1.op_class::SimdFloatAdd                  3     12.50%     54.17% # Class of executed instruction
system.cpu1.op_class::SimdFloatAlu                  0      0.00%     54.17% # Class of executed instruction
system.cpu1.op_class::SimdFloatCmp                  0      0.00%     54.17% # Class of executed instruction
system.cpu1.op_class::SimdFloatCvt                  4     16.67%     70.83% # Class of executed instruction
system.cpu1.op_class::SimdFloatDiv                  0      0.00%     70.83% # Class of executed instruction
system.cpu1.op_class::SimdFloatMisc                 0      0.00%     70.83% # Class of executed instruction
system.cpu1.op_class::SimdFloatMult                 3     12.50%     83.33% # Class of executed instruction
system.cpu1.op_class::SimdFloatMultAcc              0      0.00%     83.33% # Class of executed instruction
system.cpu1.op_class::SimdFloatSqrt                 0      0.00%     83.33% # Class of executed instruction
system.cpu1.op_class::SimdReduceAdd                 0      0.00%     83.33% # Class of executed instruction
system.cpu1.op_class::SimdReduceAlu                 0      0.00%     83.33% # Class of executed instruction
system.cpu1.op_class::SimdReduceCmp                 0      0.00%     83.33% # Class of executed instruction
system.cpu1.op_class::SimdFloatReduceAdd            0      0.00%     83.33% # Class of executed instruction
system.cpu1.op_class::SimdFloatReduceCmp            0      0.00%     83.33% # Class of executed instruction
system.cpu1.op_class::SimdAes                       0      0.00%     83.33% # Class of executed instruction
system.cpu1.op_class::SimdAesMix                    0      0.00%     83.33% # Class of executed instruction
system.cpu1.op_class::SimdSha1Hash                  0      0.00%     83.33% # Class of executed instruction
system.cpu1.op_class::SimdSha1Hash2                 0      0.00%     83.33% # Class of executed instruction
system.cpu1.op_class::SimdSha256Hash                0      0.00%     83.33% # Class of executed instruction
system.cpu1.op_class::SimdSha256Hash2               0      0.00%     83.33% # Class of executed instruction
system.cpu1.op_class::SimdShaSigma2                 0      0.00%     83.33% # Class of executed instruction
system.cpu1.op_class::SimdShaSigma3                 0      0.00%     83.33% # Class of executed instruction
system.cpu1.op_class::SimdPredAlu                   0      0.00%     83.33% # Class of executed instruction
system.cpu1.op_class::MemRead                       4     16.67%    100.00% # Class of executed instruction
system.cpu1.op_class::MemWrite                      0      0.00%    100.00% # Class of executed instruction
system.cpu1.op_class::FloatMemRead                  0      0.00%    100.00% # Class of executed instruction
system.cpu1.op_class::FloatMemWrite                 0      0.00%    100.00% # Class of executed instruction
system.cpu1.op_class::IprAccess                     0      0.00%    100.00% # Class of executed instruction
system.cpu1.op_class::InstPrefetch                  0      0.00%    100.00% # Class of executed instruction
system.cpu1.op_class::total                        24                       # Class of executed instruction
system.cpu1.workload.numSyscalls                    0                       # Number of system calls
system.cpu2.committedInsts                         15                       # Number of instructions committed
system.cpu2.committedOps                           24                       # Number of ops (including micro ops) committed
system.cpu2.idle_fraction                           0                       # Percentage of idle cycles
system.cpu2.l2bus.snoop_filter.hit_multi_requests            3                       # Number of requests hitting in the snoop filter with multiple (>1) holders of the requested data.
system.cpu2.l2bus.snoop_filter.hit_multi_snoops            0                       # Number of snoops hitting in the snoop filter with multiple (>1) holders of the requested data.
system.cpu2.l2bus.snoop_filter.hit_single_requests      2530356                       # Number of requests hitting in the snoop filter with a single holder of the requested data.
system.cpu2.l2bus.snoop_filter.hit_single_snoops          105                       # Number of snoops hitting in the snoop filter with a single holder of the requested data.
system.cpu2.l2bus.snoop_filter.tot_requests      5061216                       # Total number of requests made to the snoop filter.
system.cpu2.l2bus.snoop_filter.tot_snoops          105                       # Total number of snoops made to the snoop filter.
system.cpu2.mmucache.mmubus.snoop_filter.hit_multi_requests            0                       # Number of requests hitting in the snoop filter with multiple (>1) holders of the requested data.
system.cpu2.mmucache.mmubus.snoop_filter.hit_multi_snoops            0                       # Number of snoops hitting in the snoop filter with multiple (>1) holders of the requested data.
system.cpu2.mmucache.mmubus.snoop_filter.hit_single_requests            0                       # Number of requests hitting in the snoop filter with a single holder of the requested data.
system.cpu2.mmucache.mmubus.snoop_filter.hit_single_snoops            0                       # Number of snoops hitting in the snoop filter with a single holder of the requested data.
system.cpu2.mmucache.mmubus.snoop_filter.tot_requests            0                       # Total number of requests made to the snoop filter.
system.cpu2.mmucache.mmubus.snoop_filter.tot_snoops            0                       # Total number of snoops made to the snoop filter.
system.cpu2.not_idle_fraction                       1                       # Percentage of non-idle cycles
system.cpu2.numCycles                              31                       # number of cpu cycles simulated
system.cpu2.numWorkItemsCompleted                   0                       # number of work items this cpu completed
system.cpu2.numWorkItemsStarted                     0                       # number of work items this cpu started
system.cpu2.num_busy_cycles                        31                       # Number of busy cycles
system.cpu2.num_cc_register_writes                  2                       # number of times the CC registers were written
system.cpu2.num_conditional_control_insts            0                       # number of instructions that are conditional controls
system.cpu2.num_fp_alu_accesses                    14                       # Number of float alu accesses
system.cpu2.num_fp_insts                           14                       # number of float instructions
system.cpu2.num_fp_register_reads                  30                       # number of times the floating registers were read
system.cpu2.num_fp_register_writes                 14                       # number of times the floating registers were written
system.cpu2.num_func_calls                          0                       # number of times a function call or return occured
system.cpu2.num_idle_cycles                         0                       # Number of idle cycles
system.cpu2.num_int_alu_accesses                   14                       # Number of integer alu accesses
system.cpu2.num_int_insts                          14                       # number of integer instructions
system.cpu2.num_int_register_reads                 26                       # number of times the integer registers were read
system.cpu2.num_int_register_writes                10                       # number of times the integer registers were written
system.cpu2.num_load_insts                          4                       # Number of load instructions
system.cpu2.num_mem_refs                            4                       # number of memory refs
system.cpu2.num_store_insts                         0                       # Number of store instructions
system.cpu2.num_vec_alu_accesses                    0                       # Number of vector alu accesses
system.cpu2.num_vec_insts                           0                       # number of vector instructions
system.cpu2.num_vec_register_reads                  0                       # number of times the vector registers were read
system.cpu2.num_vec_register_writes                 0                       # number of times the vector registers were written
system.cpu2.op_class::No_OpClass                    0      0.00%      0.00% # Class of executed instruction
system.cpu2.op_class::IntAlu                        6     25.00%     25.00% # Class of executed instruction
system.cpu2.op_class::IntMult                       0      0.00%     25.00% # Class of executed instruction
system.cpu2.op_class::IntDiv                        0      0.00%     25.00% # Class of executed instruction
system.cpu2.op_class::FloatAdd                      0      0.00%     25.00% # Class of executed instruction
system.cpu2.op_class::FloatCmp                      0      0.00%     25.00% # Class of executed instruction
system.cpu2.op_class::FloatCvt                      0      0.00%     25.00% # Class of executed instruction
system.cpu2.op_class::FloatMult                     0      0.00%     25.00% # Class of executed instruction
system.cpu2.op_class::FloatMultAcc                  0      0.00%     25.00% # Class of executed instruction
system.cpu2.op_class::FloatDiv                      0      0.00%     25.00% # Class of executed instruction
system.cpu2.op_class::FloatMisc                     0      0.00%     25.00% # Class of executed instruction
system.cpu2.op_class::FloatSqrt                     0      0.00%     25.00% # Class of executed instruction
system.cpu2.op_class::SimdAdd                       0      0.00%     25.00% # Class of executed instruction
system.cpu2.op_class::SimdAddAcc                    0      0.00%     25.00% # Class of executed instruction
system.cpu2.op_class::SimdAlu                       0      0.00%     25.00% # Class of executed instruction
system.cpu2.op_class::SimdCmp                       0      0.00%     25.00% # Class of executed instruction
system.cpu2.op_class::SimdCvt                       0      0.00%     25.00% # Class of executed instruction
system.cpu2.op_class::SimdMisc                      4     16.67%     41.67% # Class of executed instruction
system.cpu2.op_class::SimdMult                      0      0.00%     41.67% # Class of executed instruction
system.cpu2.op_class::SimdMultAcc                   0      0.00%     41.67% # Class of executed instruction
system.cpu2.op_class::SimdShift                     0      0.00%     41.67% # Class of executed instruction
system.cpu2.op_class::SimdShiftAcc                  0      0.00%     41.67% # Class of executed instruction
system.cpu2.op_class::SimdDiv                       0      0.00%     41.67% # Class of executed instruction
system.cpu2.op_class::SimdSqrt                      0      0.00%     41.67% # Class of executed instruction
system.cpu2.op_class::SimdFloatAdd                  3     12.50%     54.17% # Class of executed instruction
system.cpu2.op_class::SimdFloatAlu                  0      0.00%     54.17% # Class of executed instruction
system.cpu2.op_class::SimdFloatCmp                  0      0.00%     54.17% # Class of executed instruction
system.cpu2.op_class::SimdFloatCvt                  4     16.67%     70.83% # Class of executed instruction
system.cpu2.op_class::SimdFloatDiv                  0      0.00%     70.83% # Class of executed instruction
system.cpu2.op_class::SimdFloatMisc                 0      0.00%     70.83% # Class of executed instruction
system.cpu2.op_class::SimdFloatMult                 3     12.50%     83.33% # Class of executed instruction
system.cpu2.op_class::SimdFloatMultAcc              0      0.00%     83.33% # Class of executed instruction
system.cpu2.op_class::SimdFloatSqrt                 0      0.00%     83.33% # Class of executed instruction
system.cpu2.op_class::SimdReduceAdd                 0      0.00%     83.33% # Class of executed instruction
system.cpu2.op_class::SimdReduceAlu                 0      0.00%     83.33% # Class of executed instruction
system.cpu2.op_class::SimdReduceCmp                 0      0.00%     83.33% # Class of executed instruction
system.cpu2.op_class::SimdFloatReduceAdd            0      0.00%     83.33% # Class of executed instruction
system.cpu2.op_class::SimdFloatReduceCmp            0      0.00%     83.33% # Class of executed instruction
system.cpu2.op_class::SimdAes                       0      0.00%     83.33% # Class of executed instruction
system.cpu2.op_class::SimdAesMix                    0      0.00%     83.33% # Class of executed instruction
system.cpu2.op_class::SimdSha1Hash                  0      0.00%     83.33% # Class of executed instruction
system.cpu2.op_class::SimdSha1Hash2                 0      0.00%     83.33% # Class of executed instruction
system.cpu2.op_class::SimdSha256Hash                0      0.00%     83.33% # Class of executed instruction
system.cpu2.op_class::SimdSha256Hash2               0      0.00%     83.33% # Class of executed instruction
system.cpu2.op_class::SimdShaSigma2                 0      0.00%     83.33% # Class of executed instruction
system.cpu2.op_class::SimdShaSigma3                 0      0.00%     83.33% # Class of executed instruction
system.cpu2.op_class::SimdPredAlu                   0      0.00%     83.33% # Class of executed instruction
system.cpu2.op_class::MemRead                       4     16.67%    100.00% # Class of executed instruction
system.cpu2.op_class::MemWrite                      0      0.00%    100.00% # Class of executed instruction
system.cpu2.op_class::FloatMemRead                  0      0.00%    100.00% # Class of executed instruction
system.cpu2.op_class::FloatMemWrite                 0      0.00%    100.00% # Class of executed instruction
system.cpu2.op_class::IprAccess                     0      0.00%    100.00% # Class of executed instruction
system.cpu2.op_class::InstPrefetch                  0      0.00%    100.00% # Class of executed instruction
system.cpu2.op_class::total                        24                       # Class of executed instruction
system.cpu2.workload.numSyscalls                    0                       # Number of system calls
system.cpu3.committedInsts                         15                       # Number of instructions committed
system.cpu3.committedOps                           24                       # Number of ops (including micro ops) committed
system.cpu3.idle_fraction                           0                       # Percentage of idle cycles
system.cpu3.l2bus.snoop_filter.hit_multi_requests            3                       # Number of requests hitting in the snoop filter with multiple (>1) holders of the requested data.
system.cpu3.l2bus.snoop_filter.hit_multi_snoops            0                       # Number of snoops hitting in the snoop filter with multiple (>1) holders of the requested data.
system.cpu3.l2bus.snoop_filter.hit_single_requests      2529878                       # Number of requests hitting in the snoop filter with a single holder of the requested data.
system.cpu3.l2bus.snoop_filter.hit_single_snoops          105                       # Number of snoops hitting in the snoop filter with a single holder of the requested data.
system.cpu3.l2bus.snoop_filter.tot_requests      5060260                       # Total number of requests made to the snoop filter.
system.cpu3.l2bus.snoop_filter.tot_snoops          105                       # Total number of snoops made to the snoop filter.
system.cpu3.mmucache.mmubus.snoop_filter.hit_multi_requests            0                       # Number of requests hitting in the snoop filter with multiple (>1) holders of the requested data.
system.cpu3.mmucache.mmubus.snoop_filter.hit_multi_snoops            0                       # Number of snoops hitting in the snoop filter with multiple (>1) holders of the requested data.
system.cpu3.mmucache.mmubus.snoop_filter.hit_single_requests            0                       # Number of requests hitting in the snoop filter with a single holder of the requested data.
system.cpu3.mmucache.mmubus.snoop_filter.hit_single_snoops            0                       # Number of snoops hitting in the snoop filter with a single holder of the requested data.
system.cpu3.mmucache.mmubus.snoop_filter.tot_requests            0                       # Total number of requests made to the snoop filter.
system.cpu3.mmucache.mmubus.snoop_filter.tot_snoops            0                       # Total number of snoops made to the snoop filter.
system.cpu3.not_idle_fraction                       1                       # Percentage of non-idle cycles
system.cpu3.numCycles                              31                       # number of cpu cycles simulated
system.cpu3.numWorkItemsCompleted                   0                       # number of work items this cpu completed
system.cpu3.numWorkItemsStarted                     0                       # number of work items this cpu started
system.cpu3.num_busy_cycles                        31                       # Number of busy cycles
system.cpu3.num_cc_register_writes                  2                       # number of times the CC registers were written
system.cpu3.num_conditional_control_insts            0                       # number of instructions that are conditional controls
system.cpu3.num_fp_alu_accesses                    14                       # Number of float alu accesses
system.cpu3.num_fp_insts                           14                       # number of float instructions
system.cpu3.num_fp_register_reads                  30                       # number of times the floating registers were read
system.cpu3.num_fp_register_writes                 14                       # number of times the floating registers were written
system.cpu3.num_func_calls                          0                       # number of times a function call or return occured
system.cpu3.num_idle_cycles                         0                       # Number of idle cycles
system.cpu3.num_int_alu_accesses                   14                       # Number of integer alu accesses
system.cpu3.num_int_insts                          14                       # number of integer instructions
system.cpu3.num_int_register_reads                 26                       # number of times the integer registers were read
system.cpu3.num_int_register_writes                10                       # number of times the integer registers were written
system.cpu3.num_load_insts                          4                       # Number of load instructions
system.cpu3.num_mem_refs                            4                       # number of memory refs
system.cpu3.num_store_insts                         0                       # Number of store instructions
system.cpu3.num_vec_alu_accesses                    0                       # Number of vector alu accesses
system.cpu3.num_vec_insts                           0                       # number of vector instructions
system.cpu3.num_vec_register_reads                  0                       # number of times the vector registers were read
system.cpu3.num_vec_register_writes                 0                       # number of times the vector registers were written
system.cpu3.op_class::No_OpClass                    0      0.00%      0.00% # Class of executed instruction
system.cpu3.op_class::IntAlu                        6     25.00%     25.00% # Class of executed instruction
system.cpu3.op_class::IntMult                       0      0.00%     25.00% # Class of executed instruction
system.cpu3.op_class::IntDiv                        0      0.00%     25.00% # Class of executed instruction
system.cpu3.op_class::FloatAdd                      0      0.00%     25.00% # Class of executed instruction
system.cpu3.op_class::FloatCmp                      0      0.00%     25.00% # Class of executed instruction
system.cpu3.op_class::FloatCvt                      0      0.00%     25.00% # Class of executed instruction
system.cpu3.op_class::FloatMult                     0      0.00%     25.00% # Class of executed instruction
system.cpu3.op_class::FloatMultAcc                  0      0.00%     25.00% # Class of executed instruction
system.cpu3.op_class::FloatDiv                      0      0.00%     25.00% # Class of executed instruction
system.cpu3.op_class::FloatMisc                     0      0.00%     25.00% # Class of executed instruction
system.cpu3.op_class::FloatSqrt                     0      0.00%     25.00% # Class of executed instruction
system.cpu3.op_class::SimdAdd                       0      0.00%     25.00% # Class of executed instruction
system.cpu3.op_class::SimdAddAcc                    0      0.00%     25.00% # Class of executed instruction
system.cpu3.op_class::SimdAlu                       0      0.00%     25.00% # Class of executed instruction
system.cpu3.op_class::SimdCmp                       0      0.00%     25.00% # Class of executed instruction
system.cpu3.op_class::SimdCvt                       0      0.00%     25.00% # Class of executed instruction
system.cpu3.op_class::SimdMisc                      4     16.67%     41.67% # Class of executed instruction
system.cpu3.op_class::SimdMult                      0      0.00%     41.67% # Class of executed instruction
system.cpu3.op_class::SimdMultAcc                   0      0.00%     41.67% # Class of executed instruction
system.cpu3.op_class::SimdShift                     0      0.00%     41.67% # Class of executed instruction
system.cpu3.op_class::SimdShiftAcc                  0      0.00%     41.67% # Class of executed instruction
system.cpu3.op_class::SimdDiv                       0      0.00%     41.67% # Class of executed instruction
system.cpu3.op_class::SimdSqrt                      0      0.00%     41.67% # Class of executed instruction
system.cpu3.op_class::SimdFloatAdd                  3     12.50%     54.17% # Class of executed instruction
system.cpu3.op_class::SimdFloatAlu                  0      0.00%     54.17% # Class of executed instruction
system.cpu3.op_class::SimdFloatCmp                  0      0.00%     54.17% # Class of executed instruction
system.cpu3.op_class::SimdFloatCvt                  4     16.67%     70.83% # Class of executed instruction
system.cpu3.op_class::SimdFloatDiv                  0      0.00%     70.83% # Class of executed instruction
system.cpu3.op_class::SimdFloatMisc                 0      0.00%     70.83% # Class of executed instruction
system.cpu3.op_class::SimdFloatMult                 3     12.50%     83.33% # Class of executed instruction
system.cpu3.op_class::SimdFloatMultAcc              0      0.00%     83.33% # Class of executed instruction
system.cpu3.op_class::SimdFloatSqrt                 0      0.00%     83.33% # Class of executed instruction
system.cpu3.op_class::SimdReduceAdd                 0      0.00%     83.33% # Class of executed instruction
system.cpu3.op_class::SimdReduceAlu                 0      0.00%     83.33% # Class of executed instruction
system.cpu3.op_class::SimdReduceCmp                 0      0.00%     83.33% # Class of executed instruction
system.cpu3.op_class::SimdFloatReduceAdd            0      0.00%     83.33% # Class of executed instruction
system.cpu3.op_class::SimdFloatReduceCmp            0      0.00%     83.33% # Class of executed instruction
system.cpu3.op_class::SimdAes                       0      0.00%     83.33% # Class of executed instruction
system.cpu3.op_class::SimdAesMix                    0      0.00%     83.33% # Class of executed instruction
system.cpu3.op_class::SimdSha1Hash                  0      0.00%     83.33% # Class of executed instruction
system.cpu3.op_class::SimdSha1Hash2                 0      0.00%     83.33% # Class of executed instruction
system.cpu3.op_class::SimdSha256Hash                0      0.00%     83.33% # Class of executed instruction
system.cpu3.op_class::SimdSha256Hash2               0      0.00%     83.33% # Class of executed instruction
system.cpu3.op_class::SimdShaSigma2                 0      0.00%     83.33% # Class of executed instruction
system.cpu3.op_class::SimdShaSigma3                 0      0.00%     83.33% # Class of executed instruction
system.cpu3.op_class::SimdPredAlu                   0      0.00%     83.33% # Class of executed instruction
system.cpu3.op_class::MemRead                       4     16.67%    100.00% # Class of executed instruction
system.cpu3.op_class::MemWrite                      0      0.00%    100.00% # Class of executed instruction
system.cpu3.op_class::FloatMemRead                  0      0.00%    100.00% # Class of executed instruction
system.cpu3.op_class::FloatMemWrite                 0      0.00%    100.00% # Class of executed instruction
system.cpu3.op_class::IprAccess                     0      0.00%    100.00% # Class of executed instruction
system.cpu3.op_class::InstPrefetch                  0      0.00%    100.00% # Class of executed instruction
system.cpu3.op_class::total                        24                       # Class of executed instruction
system.cpu3.workload.numSyscalls                    0                       # Number of system calls
system.l3bus.snoop_filter.hit_multi_requests            0                       # Number of requests hitting in the snoop filter with multiple (>1) holders of the requested data.
system.l3bus.snoop_filter.hit_multi_snoops            0                       # Number of snoops hitting in the snoop filter with multiple (>1) holders of the requested data.
system.l3bus.snoop_filter.hit_single_requests      1889622                       # Number of requests hitting in the snoop filter with a single holder of the requested data.
system.l3bus.snoop_filter.hit_single_snoops            0                       # Number of snoops hitting in the snoop filter with a single holder of the requested data.
system.l3bus.snoop_filter.tot_requests        3788293                       # Total number of requests made to the snoop filter.
system.l3bus.snoop_filter.tot_snoops                0                       # Total number of snoops made to the snoop filter.
system.membus.snoop_filter.hit_multi_requests            0                       # Number of requests hitting in the snoop filter with multiple (>1) holders of the requested data.
system.membus.snoop_filter.hit_multi_snoops            0                       # Number of snoops hitting in the snoop filter with multiple (>1) holders of the requested data.
system.membus.snoop_filter.hit_single_requests        89725                       # Number of requests hitting in the snoop filter with a single holder of the requested data.
system.membus.snoop_filter.hit_single_snoops            0                       # Number of snoops hitting in the snoop filter with a single holder of the requested data.
system.membus.snoop_filter.tot_requests        250407                       # Total number of requests made to the snoop filter.
system.membus.snoop_filter.tot_snoops               0                       # Total number of snoops made to the snoop filter.
system.switch_cpus0.cc_regfile_reads        164579263                       # number of cc regfile reads
system.switch_cpus0.cc_regfile_writes       117050905                       # number of cc regfile writes
system.switch_cpus0.committedInsts          248599348                       # Number of Instructions Simulated
system.switch_cpus0.committedOps            420765482                       # Number of Ops (including micro ops) Simulated
system.switch_cpus0.cpi                      0.405750                       # CPI: Cycles Per Instruction
system.switch_cpus0.cpi_total                0.405750                       # CPI: Total CPI of All Threads
system.switch_cpus0.fp_regfile_reads        360144785                       # number of floating regfile reads
system.switch_cpus0.fp_regfile_writes       161900712                       # number of floating regfile writes
system.switch_cpus0.idleCycles                  27308                       # Total number of cycles that the CPU has spent unscheduled due to idling
system.switch_cpus0.iew.branchMispredicts       117358                       # Number of branch mispredicts detected at execute
system.switch_cpus0.iew.exec_branches        29174650                       # Number of branches executed
system.switch_cpus0.iew.exec_nop                    0                       # number of nop insts executed
system.switch_cpus0.iew.exec_rate            4.238308                       # Inst execution rate
system.switch_cpus0.iew.exec_refs            52279239                       # number of memory reference insts executed
system.switch_cpus0.iew.exec_stores           2292834                       # Number of stores executed
system.switch_cpus0.iew.exec_swp                    0                       # number of swp insts executed
system.switch_cpus0.iew.iewBlockCycles       10539775                       # Number of cycles IEW is blocking
system.switch_cpus0.iew.iewDispLoadInsts     50148724                       # Number of dispatched load instructions
system.switch_cpus0.iew.iewDispNonSpecInsts            0                       # Number of dispatched non-speculative instructions
system.switch_cpus0.iew.iewDispSquashedInsts         3683                       # Number of squashed instructions skipped by dispatch
system.switch_cpus0.iew.iewDispStoreInsts      2305473                       # Number of dispatched store instructions
system.switch_cpus0.iew.iewDispatchedInsts    429090798                       # Number of instructions dispatched to IQ
system.switch_cpus0.iew.iewExecLoadInsts     49986405                       # Number of load instructions executed
system.switch_cpus0.iew.iewExecSquashedInsts       138716                       # Number of squashed instructions skipped in execute
system.switch_cpus0.iew.iewExecutedInsts    427514398                       # Number of executed instructions
system.switch_cpus0.iew.iewIQFullEvents        230153                       # Number of times the IQ has become full, causing a stall
system.switch_cpus0.iew.iewIdleCycles               0                       # Number of cycles IEW is idle
system.switch_cpus0.iew.iewLSQFullEvents       142885                       # Number of times the LSQ has become full, causing a stall
system.switch_cpus0.iew.iewSquashCycles        173737                       # Number of cycles IEW is squashing
system.switch_cpus0.iew.iewUnblockCycles       488535                       # Number of cycles IEW is unblocking
system.switch_cpus0.iew.memOrderViolationEvents           78                       # Number of memory order violations
system.switch_cpus0.iew.predictedNotTakenIncorrect       114198                       # Number of branches that were predicted not taken incorrectly
system.switch_cpus0.iew.predictedTakenIncorrect         3160                       # Number of branches that were predicted taken incorrectly
system.switch_cpus0.iew.wb_consumers        634456567                       # num instructions consuming a value
system.switch_cpus0.iew.wb_count            426649021                       # cumulative count of insts written-back
system.switch_cpus0.iew.wb_fanout            0.591580                       # average fanout of values written-back
system.switch_cpus0.iew.wb_producers        375331742                       # num instructions producing a value
system.switch_cpus0.iew.wb_rate              4.229729                       # insts written-back per cycle
system.switch_cpus0.iew.wb_sent             427405916                       # cumulative count of insts sent to commit
system.switch_cpus0.int_regfile_reads       377164404                       # number of integer regfile reads
system.switch_cpus0.int_regfile_writes      223882741                       # number of integer regfile writes
system.switch_cpus0.ipc                      2.464573                       # IPC: Instructions Per Cycle
system.switch_cpus0.ipc_total                2.464573                       # IPC: Total IPC of All Threads
system.switch_cpus0.iq.FU_type_0::No_OpClass       684665      0.16%      0.16% # Type of FU issued
system.switch_cpus0.iq.FU_type_0::IntAlu    214104124     50.06%     50.23% # Type of FU issued
system.switch_cpus0.iq.FU_type_0::IntMult        35840      0.01%     50.23% # Type of FU issued
system.switch_cpus0.iq.FU_type_0::IntDiv           19      0.00%     50.23% # Type of FU issued
system.switch_cpus0.iq.FU_type_0::FloatAdd            1      0.00%     50.23% # Type of FU issued
system.switch_cpus0.iq.FU_type_0::FloatCmp            0      0.00%     50.23% # Type of FU issued
system.switch_cpus0.iq.FU_type_0::FloatCvt            0      0.00%     50.23% # Type of FU issued
system.switch_cpus0.iq.FU_type_0::FloatMult            0      0.00%     50.23% # Type of FU issued
system.switch_cpus0.iq.FU_type_0::FloatMultAcc            0      0.00%     50.23% # Type of FU issued
system.switch_cpus0.iq.FU_type_0::FloatDiv            0      0.00%     50.23% # Type of FU issued
system.switch_cpus0.iq.FU_type_0::FloatMisc            0      0.00%     50.23% # Type of FU issued
system.switch_cpus0.iq.FU_type_0::FloatSqrt            0      0.00%     50.23% # Type of FU issued
system.switch_cpus0.iq.FU_type_0::SimdAdd            0      0.00%     50.23% # Type of FU issued
system.switch_cpus0.iq.FU_type_0::SimdAddAcc            0      0.00%     50.23% # Type of FU issued
system.switch_cpus0.iq.FU_type_0::SimdAlu        28960      0.01%     50.24% # Type of FU issued
system.switch_cpus0.iq.FU_type_0::SimdCmp            0      0.00%     50.24% # Type of FU issued
system.switch_cpus0.iq.FU_type_0::SimdCvt            0      0.00%     50.24% # Type of FU issued
system.switch_cpus0.iq.FU_type_0::SimdMisc     37742095      8.83%     59.07% # Type of FU issued
system.switch_cpus0.iq.FU_type_0::SimdMult            0      0.00%     59.07% # Type of FU issued
system.switch_cpus0.iq.FU_type_0::SimdMultAcc            0      0.00%     59.07% # Type of FU issued
system.switch_cpus0.iq.FU_type_0::SimdShift            0      0.00%     59.07% # Type of FU issued
system.switch_cpus0.iq.FU_type_0::SimdShiftAcc            0      0.00%     59.07% # Type of FU issued
system.switch_cpus0.iq.FU_type_0::SimdDiv            0      0.00%     59.07% # Type of FU issued
system.switch_cpus0.iq.FU_type_0::SimdSqrt            0      0.00%     59.07% # Type of FU issued
system.switch_cpus0.iq.FU_type_0::SimdFloatAdd     37737922      8.82%     67.89% # Type of FU issued
system.switch_cpus0.iq.FU_type_0::SimdFloatAlu            0      0.00%     67.89% # Type of FU issued
system.switch_cpus0.iq.FU_type_0::SimdFloatCmp            0      0.00%     67.89% # Type of FU issued
system.switch_cpus0.iq.FU_type_0::SimdFloatCvt     47255373     11.05%     78.94% # Type of FU issued
system.switch_cpus0.iq.FU_type_0::SimdFloatDiv            0      0.00%     78.94% # Type of FU issued
system.switch_cpus0.iq.FU_type_0::SimdFloatMisc            0      0.00%     78.94% # Type of FU issued
system.switch_cpus0.iq.FU_type_0::SimdFloatMult     37736523      8.82%     87.76% # Type of FU issued
system.switch_cpus0.iq.FU_type_0::SimdFloatMultAcc            0      0.00%     87.76% # Type of FU issued
system.switch_cpus0.iq.FU_type_0::SimdFloatSqrt            0      0.00%     87.76% # Type of FU issued
system.switch_cpus0.iq.FU_type_0::SimdReduceAdd            0      0.00%     87.76% # Type of FU issued
system.switch_cpus0.iq.FU_type_0::SimdReduceAlu            0      0.00%     87.76% # Type of FU issued
system.switch_cpus0.iq.FU_type_0::SimdReduceCmp            0      0.00%     87.76% # Type of FU issued
system.switch_cpus0.iq.FU_type_0::SimdFloatReduceAdd            0      0.00%     87.76% # Type of FU issued
system.switch_cpus0.iq.FU_type_0::SimdFloatReduceCmp            0      0.00%     87.76% # Type of FU issued
system.switch_cpus0.iq.FU_type_0::SimdAes            0      0.00%     87.76% # Type of FU issued
system.switch_cpus0.iq.FU_type_0::SimdAesMix            0      0.00%     87.76% # Type of FU issued
system.switch_cpus0.iq.FU_type_0::SimdSha1Hash            0      0.00%     87.76% # Type of FU issued
system.switch_cpus0.iq.FU_type_0::SimdSha1Hash2            0      0.00%     87.76% # Type of FU issued
system.switch_cpus0.iq.FU_type_0::SimdSha256Hash            0      0.00%     87.76% # Type of FU issued
system.switch_cpus0.iq.FU_type_0::SimdSha256Hash2            0      0.00%     87.76% # Type of FU issued
system.switch_cpus0.iq.FU_type_0::SimdShaSigma2            0      0.00%     87.76% # Type of FU issued
system.switch_cpus0.iq.FU_type_0::SimdShaSigma3            0      0.00%     87.76% # Type of FU issued
system.switch_cpus0.iq.FU_type_0::SimdPredAlu            0      0.00%     87.76% # Type of FU issued
system.switch_cpus0.iq.FU_type_0::MemRead     39108021      9.14%     96.91% # Type of FU issued
system.switch_cpus0.iq.FU_type_0::MemWrite       924609      0.22%     97.13% # Type of FU issued
system.switch_cpus0.iq.FU_type_0::FloatMemRead     10924978      2.55%     99.68% # Type of FU issued
system.switch_cpus0.iq.FU_type_0::FloatMemWrite      1369987      0.32%    100.00% # Type of FU issued
system.switch_cpus0.iq.FU_type_0::IprAccess            0      0.00%    100.00% # Type of FU issued
system.switch_cpus0.iq.FU_type_0::InstPrefetch            0      0.00%    100.00% # Type of FU issued
system.switch_cpus0.iq.FU_type_0::total     427653117                       # Type of FU issued
system.switch_cpus0.iq.fp_alu_accesses      173606746                       # Number of floating point alu accesses
system.switch_cpus0.iq.fp_inst_queue_reads    346425996                       # Number of floating instruction queue reads
system.switch_cpus0.iq.fp_inst_queue_wakeup_accesses    172761930                       # Number of floating instruction queue wakeup accesses
system.switch_cpus0.iq.fp_inst_queue_writes    177372700                       # Number of floating instruction queue writes
system.switch_cpus0.iq.fu_busy_cnt            1551815                       # FU busy when requested
system.switch_cpus0.iq.fu_busy_rate          0.003629                       # FU busy rate (busy events/executed inst)
system.switch_cpus0.iq.fu_full::No_OpClass            0      0.00%      0.00% # attempts to use FU when none available
system.switch_cpus0.iq.fu_full::IntAlu         338002     21.78%     21.78% # attempts to use FU when none available
system.switch_cpus0.iq.fu_full::IntMult             0      0.00%     21.78% # attempts to use FU when none available
system.switch_cpus0.iq.fu_full::IntDiv              0      0.00%     21.78% # attempts to use FU when none available
system.switch_cpus0.iq.fu_full::FloatAdd            0      0.00%     21.78% # attempts to use FU when none available
system.switch_cpus0.iq.fu_full::FloatCmp            0      0.00%     21.78% # attempts to use FU when none available
system.switch_cpus0.iq.fu_full::FloatCvt            0      0.00%     21.78% # attempts to use FU when none available
system.switch_cpus0.iq.fu_full::FloatMult            0      0.00%     21.78% # attempts to use FU when none available
system.switch_cpus0.iq.fu_full::FloatMultAcc            0      0.00%     21.78% # attempts to use FU when none available
system.switch_cpus0.iq.fu_full::FloatDiv            0      0.00%     21.78% # attempts to use FU when none available
system.switch_cpus0.iq.fu_full::FloatMisc            0      0.00%     21.78% # attempts to use FU when none available
system.switch_cpus0.iq.fu_full::FloatSqrt            0      0.00%     21.78% # attempts to use FU when none available
system.switch_cpus0.iq.fu_full::SimdAdd             0      0.00%     21.78% # attempts to use FU when none available
system.switch_cpus0.iq.fu_full::SimdAddAcc            0      0.00%     21.78% # attempts to use FU when none available
system.switch_cpus0.iq.fu_full::SimdAlu          3362      0.22%     22.00% # attempts to use FU when none available
system.switch_cpus0.iq.fu_full::SimdCmp             0      0.00%     22.00% # attempts to use FU when none available
system.switch_cpus0.iq.fu_full::SimdCvt             0      0.00%     22.00% # attempts to use FU when none available
system.switch_cpus0.iq.fu_full::SimdMisc        14369      0.93%     22.92% # attempts to use FU when none available
system.switch_cpus0.iq.fu_full::SimdMult            0      0.00%     22.92% # attempts to use FU when none available
system.switch_cpus0.iq.fu_full::SimdMultAcc            0      0.00%     22.92% # attempts to use FU when none available
system.switch_cpus0.iq.fu_full::SimdShift            0      0.00%     22.92% # attempts to use FU when none available
system.switch_cpus0.iq.fu_full::SimdShiftAcc            0      0.00%     22.92% # attempts to use FU when none available
system.switch_cpus0.iq.fu_full::SimdDiv             0      0.00%     22.92% # attempts to use FU when none available
system.switch_cpus0.iq.fu_full::SimdSqrt            0      0.00%     22.92% # attempts to use FU when none available
system.switch_cpus0.iq.fu_full::SimdFloatAdd            0      0.00%     22.92% # attempts to use FU when none available
system.switch_cpus0.iq.fu_full::SimdFloatAlu            0      0.00%     22.92% # attempts to use FU when none available
system.switch_cpus0.iq.fu_full::SimdFloatCmp            0      0.00%     22.92% # attempts to use FU when none available
system.switch_cpus0.iq.fu_full::SimdFloatCvt       136399      8.79%     31.71% # attempts to use FU when none available
system.switch_cpus0.iq.fu_full::SimdFloatDiv            0      0.00%     31.71% # attempts to use FU when none available
system.switch_cpus0.iq.fu_full::SimdFloatMisc            0      0.00%     31.71% # attempts to use FU when none available
system.switch_cpus0.iq.fu_full::SimdFloatMult            0      0.00%     31.71% # attempts to use FU when none available
system.switch_cpus0.iq.fu_full::SimdFloatMultAcc            0      0.00%     31.71% # attempts to use FU when none available
system.switch_cpus0.iq.fu_full::SimdFloatSqrt            0      0.00%     31.71% # attempts to use FU when none available
system.switch_cpus0.iq.fu_full::SimdReduceAdd            0      0.00%     31.71% # attempts to use FU when none available
system.switch_cpus0.iq.fu_full::SimdReduceAlu            0      0.00%     31.71% # attempts to use FU when none available
system.switch_cpus0.iq.fu_full::SimdReduceCmp            0      0.00%     31.71% # attempts to use FU when none available
system.switch_cpus0.iq.fu_full::SimdFloatReduceAdd            0      0.00%     31.71% # attempts to use FU when none available
system.switch_cpus0.iq.fu_full::SimdFloatReduceCmp            0      0.00%     31.71% # attempts to use FU when none available
system.switch_cpus0.iq.fu_full::SimdAes             0      0.00%     31.71% # attempts to use FU when none available
system.switch_cpus0.iq.fu_full::SimdAesMix            0      0.00%     31.71% # attempts to use FU when none available
system.switch_cpus0.iq.fu_full::SimdSha1Hash            0      0.00%     31.71% # attempts to use FU when none available
system.switch_cpus0.iq.fu_full::SimdSha1Hash2            0      0.00%     31.71% # attempts to use FU when none available
system.switch_cpus0.iq.fu_full::SimdSha256Hash            0      0.00%     31.71% # attempts to use FU when none available
system.switch_cpus0.iq.fu_full::SimdSha256Hash2            0      0.00%     31.71% # attempts to use FU when none available
system.switch_cpus0.iq.fu_full::SimdShaSigma2            0      0.00%     31.71% # attempts to use FU when none available
system.switch_cpus0.iq.fu_full::SimdShaSigma3            0      0.00%     31.71% # attempts to use FU when none available
system.switch_cpus0.iq.fu_full::SimdPredAlu            0      0.00%     31.71% # attempts to use FU when none available
system.switch_cpus0.iq.fu_full::MemRead         91514      5.90%     37.61% # attempts to use FU when none available
system.switch_cpus0.iq.fu_full::MemWrite       334449     21.55%     59.16% # attempts to use FU when none available
system.switch_cpus0.iq.fu_full::FloatMemRead       438702     28.27%     87.43% # attempts to use FU when none available
system.switch_cpus0.iq.fu_full::FloatMemWrite       195018     12.57%    100.00% # attempts to use FU when none available
system.switch_cpus0.iq.fu_full::IprAccess            0      0.00%    100.00% # attempts to use FU when none available
system.switch_cpus0.iq.fu_full::InstPrefetch            0      0.00%    100.00% # attempts to use FU when none available
system.switch_cpus0.iq.int_alu_accesses     254913521                       # Number of integer alu accesses
system.switch_cpus0.iq.int_inst_queue_reads    611276955                       # Number of integer instruction queue reads
system.switch_cpus0.iq.int_inst_queue_wakeup_accesses    253887091                       # Number of integer instruction queue wakeup accesses
system.switch_cpus0.iq.int_inst_queue_writes    260043335                       # Number of integer instruction queue writes
system.switch_cpus0.iq.iqInstsAdded         429090254                       # Number of instructions added to the IQ (excludes non-spec)
system.switch_cpus0.iq.iqInstsIssued        427653117                       # Number of instructions issued
system.switch_cpus0.iq.iqNonSpecInstsAdded          544                       # Number of non-speculative instructions added to the IQ
system.switch_cpus0.iq.iqSquashedInstsExamined      8325159                       # Number of squashed instructions iterated over during squash; mainly for profiling
system.switch_cpus0.iq.iqSquashedInstsIssued         3093                       # Number of squashed instructions issued
system.switch_cpus0.iq.iqSquashedNonSpecRemoved          461                       # Number of squashed non-spec instructions that were removed
system.switch_cpus0.iq.iqSquashedOperandsExamined      4701019                       # Number of squashed operands that are examined and possibly removed from graph
system.switch_cpus0.iq.issued_per_cycle::samples    100841812                       # Number of insts issued each cycle
system.switch_cpus0.iq.issued_per_cycle::mean     4.240831                       # Number of insts issued each cycle
system.switch_cpus0.iq.issued_per_cycle::stdev     2.769526                       # Number of insts issued each cycle
system.switch_cpus0.iq.issued_per_cycle::underflows            0      0.00%      0.00% # Number of insts issued each cycle
system.switch_cpus0.iq.issued_per_cycle::0     16266595     16.13%     16.13% # Number of insts issued each cycle
system.switch_cpus0.iq.issued_per_cycle::1      5717813      5.67%     21.80% # Number of insts issued each cycle
system.switch_cpus0.iq.issued_per_cycle::2      8682813      8.61%     30.41% # Number of insts issued each cycle
system.switch_cpus0.iq.issued_per_cycle::3      8969412      8.89%     39.31% # Number of insts issued each cycle
system.switch_cpus0.iq.issued_per_cycle::4     11255685     11.16%     50.47% # Number of insts issued each cycle
system.switch_cpus0.iq.issued_per_cycle::5     11988316     11.89%     62.36% # Number of insts issued each cycle
system.switch_cpus0.iq.issued_per_cycle::6     10742782     10.65%     73.01% # Number of insts issued each cycle
system.switch_cpus0.iq.issued_per_cycle::7      9506738      9.43%     82.44% # Number of insts issued each cycle
system.switch_cpus0.iq.issued_per_cycle::8     17711658     17.56%    100.00% # Number of insts issued each cycle
system.switch_cpus0.iq.issued_per_cycle::overflows            0      0.00%    100.00% # Number of insts issued each cycle
system.switch_cpus0.iq.issued_per_cycle::min_value            0                       # Number of insts issued each cycle
system.switch_cpus0.iq.issued_per_cycle::max_value            8                       # Number of insts issued each cycle
system.switch_cpus0.iq.issued_per_cycle::total    100841812                       # Number of insts issued each cycle
system.switch_cpus0.iq.rate                  4.239683                       # Inst issue rate
system.switch_cpus0.iq.vec_alu_accesses             0                       # Number of vector alu accesses
system.switch_cpus0.iq.vec_inst_queue_reads            0                       # Number of vector instruction queue reads
system.switch_cpus0.iq.vec_inst_queue_wakeup_accesses            0                       # Number of vector instruction queue wakeup accesses
system.switch_cpus0.iq.vec_inst_queue_writes            0                       # Number of vector instruction queue writes
system.switch_cpus0.memDep0.conflictingLoads        14785                       # Number of conflicting loads.
system.switch_cpus0.memDep0.conflictingStores        46931                       # Number of conflicting stores.
system.switch_cpus0.memDep0.insertedLoads     50148724                       # Number of loads inserted to the mem dependence unit.
system.switch_cpus0.memDep0.insertedStores      2305473                       # Number of stores inserted to the mem dependence unit.
system.switch_cpus0.misc_regfile_reads      110695588                       # number of misc regfile reads
system.switch_cpus0.misc_regfile_writes             1                       # number of misc regfile writes
system.switch_cpus0.numCycles               100869120                       # number of cpu cycles simulated
system.switch_cpus0.numWorkItemsCompleted            0                       # number of work items this cpu completed
system.switch_cpus0.numWorkItemsStarted             0                       # number of work items this cpu started
system.switch_cpus0.timesIdled                    139                       # Number of times that the entire CPU went into an idle state and unscheduled itself
system.switch_cpus1.cc_regfile_reads        164229036                       # number of cc regfile reads
system.switch_cpus1.cc_regfile_writes       116801486                       # number of cc regfile writes
system.switch_cpus1.committedInsts          248064141                       # Number of Instructions Simulated
system.switch_cpus1.committedOps            419859772                       # Number of Ops (including micro ops) Simulated
system.switch_cpus1.cpi                      0.406625                       # CPI: Cycles Per Instruction
system.switch_cpus1.cpi_total                0.406625                       # CPI: Total CPI of All Threads
system.switch_cpus1.fp_regfile_reads        359366999                       # number of floating regfile reads
system.switch_cpus1.fp_regfile_writes       161552591                       # number of floating regfile writes
system.switch_cpus1.idleCycles                  30433                       # Total number of cycles that the CPU has spent unscheduled due to idling
system.switch_cpus1.iew.branchMispredicts       117120                       # Number of branch mispredicts detected at execute
system.switch_cpus1.iew.exec_branches        29112790                       # Number of branches executed
system.switch_cpus1.iew.exec_nop                    0                       # number of nop insts executed
system.switch_cpus1.iew.exec_rate            4.229320                       # Inst execution rate
system.switch_cpus1.iew.exec_refs            52175915                       # number of memory reference insts executed
system.switch_cpus1.iew.exec_stores           2292903                       # Number of stores executed
system.switch_cpus1.iew.exec_swp                    0                       # number of swp insts executed
system.switch_cpus1.iew.iewBlockCycles       10595112                       # Number of cycles IEW is blocking
system.switch_cpus1.iew.iewDispLoadInsts     50045312                       # Number of dispatched load instructions
system.switch_cpus1.iew.iewDispNonSpecInsts            0                       # Number of dispatched non-speculative instructions
system.switch_cpus1.iew.iewDispSquashedInsts         3622                       # Number of squashed instructions skipped by dispatch
system.switch_cpus1.iew.iewDispStoreInsts      2305567                       # Number of dispatched store instructions
system.switch_cpus1.iew.iewDispatchedInsts    428182726                       # Number of instructions dispatched to IQ
system.switch_cpus1.iew.iewExecLoadInsts     49883012                       # Number of load instructions executed
system.switch_cpus1.iew.iewExecSquashedInsts       138479                       # Number of squashed instructions skipped in execute
system.switch_cpus1.iew.iewExecutedInsts    426607765                       # Number of executed instructions
system.switch_cpus1.iew.iewIQFullEvents        232520                       # Number of times the IQ has become full, causing a stall
system.switch_cpus1.iew.iewIdleCycles               0                       # Number of cycles IEW is idle
system.switch_cpus1.iew.iewLSQFullEvents       143863                       # Number of times the LSQ has become full, causing a stall
system.switch_cpus1.iew.iewSquashCycles        173484                       # Number of cycles IEW is squashing
system.switch_cpus1.iew.iewUnblockCycles       492510                       # Number of cycles IEW is unblocking
system.switch_cpus1.iew.memOrderViolationEvents           77                       # Number of memory order violations
system.switch_cpus1.iew.predictedNotTakenIncorrect       113946                       # Number of branches that were predicted not taken incorrectly
system.switch_cpus1.iew.predictedTakenIncorrect         3174                       # Number of branches that were predicted taken incorrectly
system.switch_cpus1.iew.wb_consumers        633001641                       # num instructions consuming a value
system.switch_cpus1.iew.wb_count            425743160                       # cumulative count of insts written-back
system.switch_cpus1.iew.wb_fanout            0.591610                       # average fanout of values written-back
system.switch_cpus1.iew.wb_producers        374490369                       # num instructions producing a value
system.switch_cpus1.iew.wb_rate              4.220748                       # insts written-back per cycle
system.switch_cpus1.iew.wb_sent             426499581                       # cumulative count of insts sent to commit
system.switch_cpus1.int_regfile_reads       376378061                       # number of integer regfile reads
system.switch_cpus1.int_regfile_writes      223407145                       # number of integer regfile writes
system.switch_cpus1.ipc                      2.459267                       # IPC: Instructions Per Cycle
system.switch_cpus1.ipc_total                2.459267                       # IPC: Total IPC of All Threads
system.switch_cpus1.iq.FU_type_0::No_OpClass       684661      0.16%      0.16% # Type of FU issued
system.switch_cpus1.iq.FU_type_0::IntAlu    213648890     50.06%     50.23% # Type of FU issued
system.switch_cpus1.iq.FU_type_0::IntMult        35837      0.01%     50.23% # Type of FU issued
system.switch_cpus1.iq.FU_type_0::IntDiv           20      0.00%     50.23% # Type of FU issued
system.switch_cpus1.iq.FU_type_0::FloatAdd            1      0.00%     50.23% # Type of FU issued
system.switch_cpus1.iq.FU_type_0::FloatCmp            0      0.00%     50.23% # Type of FU issued
system.switch_cpus1.iq.FU_type_0::FloatCvt            0      0.00%     50.23% # Type of FU issued
system.switch_cpus1.iq.FU_type_0::FloatMult            0      0.00%     50.23% # Type of FU issued
system.switch_cpus1.iq.FU_type_0::FloatMultAcc            0      0.00%     50.23% # Type of FU issued
system.switch_cpus1.iq.FU_type_0::FloatDiv            0      0.00%     50.23% # Type of FU issued
system.switch_cpus1.iq.FU_type_0::FloatMisc            0      0.00%     50.23% # Type of FU issued
system.switch_cpus1.iq.FU_type_0::FloatSqrt            0      0.00%     50.23% # Type of FU issued
system.switch_cpus1.iq.FU_type_0::SimdAdd            0      0.00%     50.23% # Type of FU issued
system.switch_cpus1.iq.FU_type_0::SimdAddAcc            0      0.00%     50.23% # Type of FU issued
system.switch_cpus1.iq.FU_type_0::SimdAlu        28880      0.01%     50.24% # Type of FU issued
system.switch_cpus1.iq.FU_type_0::SimdCmp            0      0.00%     50.24% # Type of FU issued
system.switch_cpus1.iq.FU_type_0::SimdCvt            0      0.00%     50.24% # Type of FU issued
system.switch_cpus1.iq.FU_type_0::SimdMisc     37660315      8.82%     59.07% # Type of FU issued
system.switch_cpus1.iq.FU_type_0::SimdMult            0      0.00%     59.07% # Type of FU issued
system.switch_cpus1.iq.FU_type_0::SimdMultAcc            0      0.00%     59.07% # Type of FU issued
system.switch_cpus1.iq.FU_type_0::SimdShift            0      0.00%     59.07% # Type of FU issued
system.switch_cpus1.iq.FU_type_0::SimdShiftAcc            0      0.00%     59.07% # Type of FU issued
system.switch_cpus1.iq.FU_type_0::SimdDiv            0      0.00%     59.07% # Type of FU issued
system.switch_cpus1.iq.FU_type_0::SimdSqrt            0      0.00%     59.07% # Type of FU issued
system.switch_cpus1.iq.FU_type_0::SimdFloatAdd     37656137      8.82%     67.89% # Type of FU issued
system.switch_cpus1.iq.FU_type_0::SimdFloatAlu            0      0.00%     67.89% # Type of FU issued
system.switch_cpus1.iq.FU_type_0::SimdFloatCmp            0      0.00%     67.89% # Type of FU issued
system.switch_cpus1.iq.FU_type_0::SimdFloatCvt     47152778     11.05%     78.94% # Type of FU issued
system.switch_cpus1.iq.FU_type_0::SimdFloatDiv            0      0.00%     78.94% # Type of FU issued
system.switch_cpus1.iq.FU_type_0::SimdFloatMisc            0      0.00%     78.94% # Type of FU issued
system.switch_cpus1.iq.FU_type_0::SimdFloatMult     37654740      8.82%     87.76% # Type of FU issued
system.switch_cpus1.iq.FU_type_0::SimdFloatMultAcc            0      0.00%     87.76% # Type of FU issued
system.switch_cpus1.iq.FU_type_0::SimdFloatSqrt            0      0.00%     87.76% # Type of FU issued
system.switch_cpus1.iq.FU_type_0::SimdReduceAdd            0      0.00%     87.76% # Type of FU issued
system.switch_cpus1.iq.FU_type_0::SimdReduceAlu            0      0.00%     87.76% # Type of FU issued
system.switch_cpus1.iq.FU_type_0::SimdReduceCmp            0      0.00%     87.76% # Type of FU issued
system.switch_cpus1.iq.FU_type_0::SimdFloatReduceAdd            0      0.00%     87.76% # Type of FU issued
system.switch_cpus1.iq.FU_type_0::SimdFloatReduceCmp            0      0.00%     87.76% # Type of FU issued
system.switch_cpus1.iq.FU_type_0::SimdAes            0      0.00%     87.76% # Type of FU issued
system.switch_cpus1.iq.FU_type_0::SimdAesMix            0      0.00%     87.76% # Type of FU issued
system.switch_cpus1.iq.FU_type_0::SimdSha1Hash            0      0.00%     87.76% # Type of FU issued
system.switch_cpus1.iq.FU_type_0::SimdSha1Hash2            0      0.00%     87.76% # Type of FU issued
system.switch_cpus1.iq.FU_type_0::SimdSha256Hash            0      0.00%     87.76% # Type of FU issued
system.switch_cpus1.iq.FU_type_0::SimdSha256Hash2            0      0.00%     87.76% # Type of FU issued
system.switch_cpus1.iq.FU_type_0::SimdShaSigma2            0      0.00%     87.76% # Type of FU issued
system.switch_cpus1.iq.FU_type_0::SimdShaSigma3            0      0.00%     87.76% # Type of FU issued
system.switch_cpus1.iq.FU_type_0::SimdPredAlu            0      0.00%     87.76% # Type of FU issued
[...]
system.switch_cpus3.commit.numCommittedDist::stdev     3.484473                       # Number of insts commited each cycle
system.switch_cpus3.commit.numCommittedDist::underflows            0      0.00%      0.00% # Number of insts commited each cycle
system.switch_cpus3.commit.numCommittedDist::0     21023461     21.06%     21.06% # Number of insts commited each cycle
system.switch_cpus3.commit.numCommittedDist::1     20332237     20.36%     41.42% # Number of insts commited each cycle
system.switch_cpus3.commit.numCommittedDist::2        89110      0.09%     41.51% # Number of insts commited each cycle
system.switch_cpus3.commit.numCommittedDist::3     10457134     10.47%     51.98% # Number of insts commited each cycle
system.switch_cpus3.commit.numCommittedDist::4       135660      0.14%     52.12% # Number of insts commited each cycle
system.switch_cpus3.commit.numCommittedDist::5       904193      0.91%     53.02% # Number of insts commited each cycle
system.switch_cpus3.commit.numCommittedDist::6       179791      0.18%     53.20% # Number of insts commited each cycle
system.switch_cpus3.commit.numCommittedDist::7      8787454      8.80%     62.00% # Number of insts commited each cycle
system.switch_cpus3.commit.numCommittedDist::8     37939760     38.00%    100.00% # Number of insts commited each cycle
system.switch_cpus3.commit.numCommittedDist::overflows            0      0.00%    100.00% # Number of insts commited each cycle
system.switch_cpus3.commit.numCommittedDist::min_value            0                       # Number of insts commited each cycle
system.switch_cpus3.commit.numCommittedDist::max_value            8                       # Number of insts commited each cycle
system.switch_cpus3.commit.numCommittedDist::total     99848800                       # Number of insts commited each cycle
system.switch_cpus3.commit.instsCommitted    249951965                       # Number of instructions committed
system.switch_cpus3.commit.opsCommitted     423054468                       # Number of ops (including micro ops) committed
system.switch_cpus3.commit.memRefs           48811955                       # Number of memory references committed
system.switch_cpus3.commit.loads             48395466                       # Number of loads committed
system.switch_cpus3.commit.amos                     0                       # Number of atomic instructions committed
system.switch_cpus3.commit.membars                  0                       # Number of memory barriers committed
system.switch_cpus3.commit.branches          29127858                       # Number of branches committed
system.switch_cpus3.commit.vector                   0                       # Number of committed Vector instructions.
system.switch_cpus3.commit.floating         171048212                       # Number of committed floating point instructions.
system.switch_cpus3.commit.integer          299679986                       # Number of committed integer instructions.
system.switch_cpus3.commit.functionCalls        13881                       # Number of function calls committed.
system.switch_cpus3.commit.committedInstType_0::No_OpClass         1379      0.00%      0.00% # Class of committed instruction
system.switch_cpus3.commit.committedInstType_0::IntAlu    212901524     50.32%     50.33% # Class of committed instruction
system.switch_cpus3.commit.committedInstType_0::IntMult        35834      0.01%     50.33% # Class of committed instruction
system.switch_cpus3.commit.committedInstType_0::IntDiv           14      0.00%     50.33% # Class of committed instruction
system.switch_cpus3.commit.committedInstType_0::FloatAdd            1      0.00%     50.33% # Class of committed instruction
system.switch_cpus3.commit.committedInstType_0::FloatCmp            0      0.00%     50.33% # Class of committed instruction
system.switch_cpus3.commit.committedInstType_0::FloatCvt            0      0.00%     50.33% # Class of committed instruction
system.switch_cpus3.commit.committedInstType_0::FloatMult            0      0.00%     50.33% # Class of committed instruction
system.switch_cpus3.commit.committedInstType_0::FloatMultAcc            0      0.00%     50.33% # Class of committed instruction
system.switch_cpus3.commit.committedInstType_0::FloatDiv            0      0.00%     50.33% # Class of committed instruction
system.switch_cpus3.commit.committedInstType_0::FloatMisc            0      0.00%     50.33% # Class of committed instruction
system.switch_cpus3.commit.committedInstType_0::FloatSqrt            0      0.00%     50.33% # Class of committed instruction
system.switch_cpus3.commit.committedInstType_0::SimdAdd            0      0.00%     50.33% # Class of committed instruction
system.switch_cpus3.commit.committedInstType_0::SimdAddAcc            0      0.00%     50.33% # Class of committed instruction
system.switch_cpus3.commit.committedInstType_0::SimdAlu        22032      0.01%     50.34% # Class of committed instruction
system.switch_cpus3.commit.committedInstType_0::SimdCmp            0      0.00%     50.34% # Class of committed instruction
system.switch_cpus3.commit.committedInstType_0::SimdCvt            0      0.00%     50.34% # Class of committed instruction
system.switch_cpus3.commit.committedInstType_0::SimdMisc     37948735      8.97%     59.31% # Class of committed instruction
system.switch_cpus3.commit.committedInstType_0::SimdMult            0      0.00%     59.31% # Class of committed instruction
system.switch_cpus3.commit.committedInstType_0::SimdMultAcc            0      0.00%     59.31% # Class of committed instruction
system.switch_cpus3.commit.committedInstType_0::SimdShift            0      0.00%     59.31% # Class of committed instruction
system.switch_cpus3.commit.committedInstType_0::SimdShiftAcc            0      0.00%     59.31% # Class of committed instruction
system.switch_cpus3.commit.committedInstType_0::SimdDiv            0      0.00%     59.31% # Class of committed instruction
system.switch_cpus3.commit.committedInstType_0::SimdSqrt            0      0.00%     59.31% # Class of committed instruction
system.switch_cpus3.commit.committedInstType_0::SimdFloatAdd     37944597      8.97%     68.28% # Class of committed instruction
system.switch_cpus3.commit.committedInstType_0::SimdFloatAlu            0      0.00%     68.28% # Class of committed instruction
system.switch_cpus3.commit.committedInstType_0::SimdFloatCmp            0      0.00%     68.28% # Class of committed instruction
system.switch_cpus3.commit.committedInstType_0::SimdFloatCvt     47445177     11.21%     79.49% # Class of committed instruction
system.switch_cpus3.commit.committedInstType_0::SimdFloatDiv            0      0.00%     79.49% # Class of committed instruction
system.switch_cpus3.commit.committedInstType_0::SimdFloatMisc            0      0.00%     79.49% # Class of committed instruction
system.switch_cpus3.commit.committedInstType_0::SimdFloatMult     37943220      8.97%     88.46% # Class of committed instruction
system.switch_cpus3.commit.committedInstType_0::SimdFloatMultAcc            0      0.00%     88.46% # Class of committed instruction
system.switch_cpus3.commit.committedInstType_0::SimdFloatSqrt            0      0.00%     88.46% # Class of committed instruction
system.switch_cpus3.commit.committedInstType_0::SimdReduceAdd            0      0.00%     88.46% # Class of committed instruction
system.switch_cpus3.commit.committedInstType_0::SimdReduceAlu            0      0.00%     88.46% # Class of committed instruction
system.switch_cpus3.commit.committedInstType_0::SimdReduceCmp            0      0.00%     88.46% # Class of committed instruction
system.switch_cpus3.commit.committedInstType_0::SimdFloatReduceAdd            0      0.00%     88.46% # Class of committed instruction
system.switch_cpus3.commit.committedInstType_0::SimdFloatReduceCmp            0      0.00%     88.46% # Class of committed instruction
system.switch_cpus3.commit.committedInstType_0::SimdAes            0      0.00%     88.46% # Class of committed instruction
system.switch_cpus3.commit.committedInstType_0::SimdAesMix            0      0.00%     88.46% # Class of committed instruction
system.switch_cpus3.commit.committedInstType_0::SimdSha1Hash            0      0.00%     88.46% # Class of committed instruction
system.switch_cpus3.commit.committedInstType_0::SimdSha1Hash2            0      0.00%     88.46% # Class of committed instruction
system.switch_cpus3.commit.committedInstType_0::SimdSha256Hash            0      0.00%     88.46% # Class of committed instruction
system.switch_cpus3.commit.committedInstType_0::SimdSha256Hash2            0      0.00%     88.46% # Class of committed instruction
system.switch_cpus3.commit.committedInstType_0::SimdShaSigma2            0      0.00%     88.46% # Class of committed instruction
system.switch_cpus3.commit.committedInstType_0::SimdShaSigma3            0      0.00%     88.46% # Class of committed instruction
system.switch_cpus3.commit.committedInstType_0::SimdPredAlu            0      0.00%     88.46% # Class of committed instruction
system.switch_cpus3.commit.committedInstType_0::MemRead     38788106      9.17%     97.63% # Class of committed instruction
system.switch_cpus3.commit.committedInstType_0::MemWrite       297301      0.07%     97.70% # Class of committed instruction
system.switch_cpus3.commit.committedInstType_0::FloatMemRead      9607360      2.27%     99.97% # Class of committed instruction
system.switch_cpus3.commit.committedInstType_0::FloatMemWrite       119188      0.03%    100.00% # Class of committed instruction
system.switch_cpus3.commit.committedInstType_0::IprAccess            0      0.00%    100.00% # Class of committed instruction
system.switch_cpus3.commit.committedInstType_0::InstPrefetch            0      0.00%    100.00% # Class of committed instruction
system.switch_cpus3.commit.committedInstType_0::total    423054468                       # Class of committed instruction
system.switch_cpus3.commit.commitEligibleSamples     37939760                       # number cycles where commit BW limit reached
system.switch_cpus3.decode.idleCycles         7609632                       # Number of cycles decode is idle
system.switch_cpus3.decode.blockedCycles     38549119                       # Number of cycles decode is blocked
system.switch_cpus3.decode.runCycles         38993564                       # Number of cycles decode is running
system.switch_cpus3.decode.unblockCycles     15514290                       # Number of cycles decode is unblocking
system.switch_cpus3.decode.squashCycles        174354                       # Number of cycles decode is squashing
system.switch_cpus3.decode.branchResolved     10129723                       # Number of times decode resolved a  branch
system.switch_cpus3.decode.branchMispred           67                       # Number of times decode detected a branch misprediction
system.switch_cpus3.decode.decodedInsts     434047909                       # Number of instructions handled by decode
system.switch_cpus3.decode.squashedInsts          344                       # Number of squashed instructions handled by decode
system.switch_cpus3.dtb.rdAccesses           50246902                       # TLB accesses on read requests
system.switch_cpus3.dtb.wrAccesses            2292770                       # TLB accesses on write requests
system.switch_cpus3.dtb.rdMisses               157527                       # TLB misses on read requests
system.switch_cpus3.dtb.wrMisses                 1620                       # TLB misses on write requests
system.switch_cpus3.dtb.walker.power_state.pwrStateResidencyTicks::UNDEFINED 17361258076953                       # Cumulative time (in ticks) in various power states
system.switch_cpus3.fetch.icacheStallCycles       152394                       # Number of cycles fetch is stalled on an Icache miss
system.switch_cpus3.fetch.insts             258340171                       # Number of instructions fetch has processed
system.switch_cpus3.fetch.branches           29871673                       # Number of branches that fetch encountered
system.switch_cpus3.fetch.predictedBranches     10273038                       # Number of branches that fetch has predicted taken
system.switch_cpus3.fetch.cycles            100514147                       # Number of cycles fetch has run and was not squashing or blocked
system.switch_cpus3.fetch.squashCycles         348838                       # Number of cycles fetch has spent squashing
system.switch_cpus3.fetch.cacheLines         20353324                       # Number of cache lines fetched
system.switch_cpus3.fetch.icacheSquashes           98                       # Number of outstanding Icache misses that were squashed
system.switch_cpus3.fetch.nisnDist::samples    100840960                       # Number of instructions fetched each cycle (Total)
system.switch_cpus3.fetch.nisnDist::mean     4.363319                       # Number of instructions fetched each cycle (Total)
system.switch_cpus3.fetch.nisnDist::stdev     3.636493                       # Number of instructions fetched each cycle (Total)
system.switch_cpus3.fetch.nisnDist::underflows            0      0.00%      0.00% # Number of instructions fetched each cycle (Total)
system.switch_cpus3.fetch.nisnDist::0        30306472     30.05%     30.05% # Number of instructions fetched each cycle (Total)
system.switch_cpus3.fetch.nisnDist::1         9314825      9.24%     39.29% # Number of instructions fetched each cycle (Total)
system.switch_cpus3.fetch.nisnDist::2         1071928      1.06%     40.35% # Number of instructions fetched each cycle (Total)
system.switch_cpus3.fetch.nisnDist::3         7347027      7.29%     47.64% # Number of instructions fetched each cycle (Total)
system.switch_cpus3.fetch.nisnDist::4         1915515      1.90%     49.54% # Number of instructions fetched each cycle (Total)
system.switch_cpus3.fetch.nisnDist::5         1249170      1.24%     50.78% # Number of instructions fetched each cycle (Total)
system.switch_cpus3.fetch.nisnDist::6         1252306      1.24%     52.02% # Number of instructions fetched each cycle (Total)
system.switch_cpus3.fetch.nisnDist::7         1989970      1.97%     53.99% # Number of instructions fetched each cycle (Total)
system.switch_cpus3.fetch.nisnDist::8        46393747     46.01%    100.00% # Number of instructions fetched each cycle (Total)
system.switch_cpus3.fetch.nisnDist::overflows            0      0.00%    100.00% # Number of instructions fetched each cycle (Total)
system.switch_cpus3.fetch.nisnDist::min_value            0                       # Number of instructions fetched each cycle (Total)
system.switch_cpus3.fetch.nisnDist::max_value            8                       # Number of instructions fetched each cycle (Total)
system.switch_cpus3.fetch.nisnDist::total    100840960                       # Number of instructions fetched each cycle (Total)
system.switch_cpus3.fetch.branchRate         0.296143                       # Number of branch fetches per cycle
system.switch_cpus3.fetch.rate               2.561142                       # Number of inst fetches per cycle
system.switch_cpus3.itb.rdAccesses                  0                       # TLB accesses on read requests
system.switch_cpus3.itb.wrAccesses           20353324                       # TLB accesses on write requests
system.switch_cpus3.itb.rdMisses                    0                       # TLB misses on read requests
system.switch_cpus3.itb.wrMisses                   20                       # TLB misses on write requests
system.switch_cpus3.itb.walker.power_state.pwrStateResidencyTicks::UNDEFINED 17361258076953                       # Cumulative time (in ticks) in various power states
system.switch_cpus3.lsq0.forwLoads             154309                       # Number of loads that had data forwarded from stores
system.switch_cpus3.lsq0.squashedLoads        2016330                       # Number of loads squashed
system.switch_cpus3.lsq0.ignoredResponses            3                       # Number of memory responses ignored because the instruction is squashed
system.switch_cpus3.lsq0.memOrderViolation           76                       # Number of memory ordering violations
system.switch_cpus3.lsq0.squashedStores       1889026                       # Number of stores squashed
system.switch_cpus3.lsq0.rescheduledLoads            0                       # Number of loads that were rescheduled
system.switch_cpus3.lsq0.blockedByCache            84                       # Number of times an access to memory failed due to the cache being blocked
system.switch_cpus3.power_state.pwrStateResidencyTicks::OFF  33589427283                       # Cumulative time (in ticks) in various power states
system.switch_cpus3.rename.squashCycles        174354                       # Number of cycles rename is squashing
system.switch_cpus3.rename.idleCycles        14643211                       # Number of cycles rename is idle
system.switch_cpus3.rename.blockCycles       12734008                       # Number of cycles rename is blocking
system.switch_cpus3.rename.serializeStallCycles          414                       # count of cycles rename stalledfor serializing inst
system.switch_cpus3.rename.runCycles         47292240                       # Number of cycles rename is running
system.switch_cpus3.rename.unblockCycles     25996732                       # Number of cycles rename is unblocking
system.switch_cpus3.rename.renamedInsts     432723615                       # Number of instructions processed by rename
system.switch_cpus3.rename.ROBFullEvents       409977                       # Number of times rename has blocked due to ROB full
system.switch_cpus3.rename.IQFullEvents      15718468                       # Number of times rename has blocked due to IQ full
system.switch_cpus3.rename.LQFullEvents         35035                       # Number of times rename has blocked due to LQ full
system.switch_cpus3.rename.SQFullEvents       4201237                       # Number of times rename has blocked due to SQ full
system.switch_cpus3.rename.renamedOperands    508743026                       # Number of destination operands rename has renamed
system.switch_cpus3.rename.lookups         1025345371                       # Number of register rename lookups that rename has made
system.switch_cpus3.rename.intLookups       381567030                       # Number of integer rename lookups
system.switch_cpus3.rename.fpLookups        365602120                       # Number of floating rename lookups
system.switch_cpus3.rename.committedMaps    500145851                       # Number of HB maps that are committed
system.switch_cpus3.rename.undoneMaps         8597030                       # Number of HB maps that are undone due to squashing
system.switch_cpus3.rename.serializing              1                       # count of serializing insts renamed
system.switch_cpus3.rename.tempSerializing            1                       # count of temporary serializing insts renamed
system.switch_cpus3.rename.skidInsts         78943373                       # count of insts added to the skid buffer
system.switch_cpus3.rob.reads               491298640                       # The number of ROB reads
system.switch_cpus3.rob.writes              861256185                       # The number of ROB writes
system.switch_cpus3.thread0.numInsts        249951965                       # Number of Instructions committed
system.switch_cpus3.thread0.numOps          423054468                       # Number of Ops committed
system.switch_cpus3.thread0.numMemRefs              0                       # Number of Memory References
system.voltage_domain.voltage                       1                       # Voltage in Volts

---------- End Simulation Statistics   ----------
