Command line:
./runscript_pride.sh mix4 RFM5.BR1.4C 4 2017 --rh_defense --rh_mitigation=RFM --rh_rfm_per_trefi=5 --rh_rfm_blast_radius=1 --rh_rfm_maxacts_per_trefi=79
Global frequency set at 1000000000000 ticks per second
RFM details - rfm_act_threshold: 15, blast_radius: 1, delay_per_rfm: 175000 ps. sample_rate: 0.062500
RH Defense config: RFM, Bus Delay: 0, rfms_per_trefi: 5, rfm_act_threshold: 15, blast_radius: 1,rfm_delay_per_act: 45000 ps.
DRAM config: RowsPerBank: 65536, BanksPerRank: 32, RanksPerChannel: 1
warn: Sockets disabled, not accepting gdb connections
warn: CoherentXBar system.cpu0.mmucache.mmubus has no snooping ports attached!
warn: CoherentXBar system.cpu1.mmucache.mmubus has no snooping ports attached!
warn: CoherentXBar system.cpu2.mmucache.mmubus has no snooping ports attached!
warn: CoherentXBar system.cpu3.mmucache.mmubus has no snooping ports attached!
warn: Checkpoints for file descriptors currently do not work.
warn: Checkpoints for file descriptors currently do not work.
warn: Checkpoints for file descriptors currently do not work.
warn: Checkpoints for file descriptors currently do not work.
gem5 Simulator System.  http://gem5.org
gem5 is copyrighted software; use the --copyright option for details.

gem5 version 20.1.0.5
gem5 compiled Jul 12 2024 12:42:38
gem5 started Jul 31 2024 18:08:01
gem5 executing on a07dda8b130c, pid 241861
command line: /home/user/PrIDE/performance/gem5/build/X86/gem5.opt --outdir=/home/user/PrIDE/performance/gem5/stats/pride_multiprogram_16GBmem_250Mn.SPEC2017.C4/RFM5.BR1.4C/mix4 /home/user/PrIDE/performance/gem5/configs/example/se_rq_spec_config_multicore.py --redirects /lib64=/home/utils/gcc-6.2.0/lib64 --benchmark=mix4 --benchmark_stdout=/home/user/PrIDE/performance/gem5/stats/pride_multiprogram_16GBmem_250Mn.SPEC2017.C4/RFM5.BR1.4C/mix4/mix4.out --benchmark_stderr=/home/user/PrIDE/performance/gem5/stats/pride_multiprogram_16GBmem_250Mn.SPEC2017.C4/RFM5.BR1.4C/mix4/mix4.err --spec-version=2017 --rh_defense --rh_mitigation=RFM --rh_rfm_per_trefi=5 --rh_rfm_blast_radius=1 --rh_rfm_maxacts_per_trefi=79 --num-cpus=4 --mem-size=16GB --mem-type=DDR5_2400_32x4 --mem-ranks=1 --mem-channels=1 --checkpoint-dir=/home/user/PrIDE/performance/gem5/cpts-DDR5/multiprogram_16GBmem_25Bn.SPEC2017.C4/mix4-1-ref-x86 --checkpoint-restore=25000000000 --at-instruction --cpu-type DerivO3CPU --caches --l2cache --l1d_size=32kB --l1i_size=32kB --l2_size=256kB --l3_size=4MB --l1d_assoc=8 --l1i_assoc=8 --l2_assoc=16 --l3_assoc=16 --cpu-clock=3GHz --sys-clock=3GHz --maxinsts=250000000 --prog-interval=300Hz

info: Standard input is not a terminal, disabling listeners.
Benchmark- 0   namd
Selected benchmark
--> namd
CMD: ['/opt/spec2017/benchspec/CPU/508.namd_r/run/run_base_refrate_gem5_se-m64.0000/namd_r_base.gem5_se-m64', '--input', '/opt/spec2017/benchspec/CPU/508.namd_r/run/run_base_refrate_gem5_se-m64.0000/apoa1.input', '--output', '/opt/spec2017/benchspec/CPU/508.namd_r/run/run_base_refrate_gem5_se-m64.0000/apoa1.ref.output', '--iterations', '65']
CWD: /opt/spec2017/benchspec/CPU/508.namd_r/run/run_base_refrate_gem5_se-m64.0000/
Process stdout file: /home/user/PrIDE/performance/gem5/stats/pride_multiprogram_16GBmem_250Mn.SPEC2017.C4/RFM5.BR1.4C/mix4/mix4.out_0
Process stderr file: /home/user/PrIDE/performance/gem5/stats/pride_multiprogram_16GBmem_250Mn.SPEC2017.C4/RFM5.BR1.4C/mix4/mix4.err_0
Benchmark- 1   deepsjeng
Selected benchmark
--> deepsjeng
CMD: ['/opt/spec2017/benchspec/CPU/531.deepsjeng_r/run/run_base_refrate_gem5_se-m64.0000/deepsjeng_r_base.gem5_se-m64', '/opt/spec2017/benchspec/CPU/531.deepsjeng_r/run/run_base_refrate_gem5_se-m64.0000/ref.txt']
CWD: /opt/spec2017/benchspec/CPU/531.deepsjeng_r/run/run_base_refrate_gem5_se-m64.0000/
Process stdout file: /home/user/PrIDE/performance/gem5/stats/pride_multiprogram_16GBmem_250Mn.SPEC2017.C4/RFM5.BR1.4C/mix4/mix4.out_1
Process stderr file: /home/user/PrIDE/performance/gem5/stats/pride_multiprogram_16GBmem_250Mn.SPEC2017.C4/RFM5.BR1.4C/mix4/mix4.err_1
Benchmark- 2   cactuBSSN
Selected benchmark
--> cactuBSSN
CMD: ['/opt/spec2017/benchspec/CPU/507.cactuBSSN_r/run/run_base_refrate_gem5_se-m64.0000/cactusBSSN_r_base.gem5_se-m64', '/opt/spec2017/benchspec/CPU/507.cactuBSSN_r/run/run_base_refrate_gem5_se-m64.0000/spec_ref.par']
CWD: /opt/spec2017/benchspec/CPU/507.cactuBSSN_r/run/run_base_refrate_gem5_se-m64.0000/
Process stdout file: /home/user/PrIDE/performance/gem5/stats/pride_multiprogram_16GBmem_250Mn.SPEC2017.C4/RFM5.BR1.4C/mix4/mix4.out_2
Process stderr file: /home/user/PrIDE/performance/gem5/stats/pride_multiprogram_16GBmem_250Mn.SPEC2017.C4/RFM5.BR1.4C/mix4/mix4.err_2
Benchmark- 3   leela
Selected benchmark
--> leela
CMD: ['/opt/spec2017/benchspec/CPU/541.leela_r/run/run_base_refrate_gem5_se-m64.0000/leela_r_base.gem5_se-m64', '/opt/spec2017/benchspec/CPU/541.leela_r/run/run_base_refrate_gem5_se-m64.0000/ref.sgf']
CWD: /opt/spec2017/benchspec/CPU/541.leela_r/run/run_base_refrate_gem5_se-m64.0000/
Process stdout file: /home/user/PrIDE/performance/gem5/stats/pride_multiprogram_16GBmem_250Mn.SPEC2017.C4/RFM5.BR1.4C/mix4/mix4.out_3
Process stderr file: /home/user/PrIDE/performance/gem5/stats/pride_multiprogram_16GBmem_250Mn.SPEC2017.C4/RFM5.BR1.4C/mix4/mix4.err_3
Workload-0: 
['/opt/spec2017/benchspec/CPU/508.namd_r/run/run_base_refrate_gem5_se-m64.0000/namd_r_base.gem5_se-m64', '--input', '/opt/spec2017/benchspec/CPU/508.namd_r/run/run_base_refrate_gem5_se-m64.0000/apoa1.input', '--output', '/opt/spec2017/benchspec/CPU/508.namd_r/run/run_base_refrate_gem5_se-m64.0000/apoa1.ref.output', '--iterations', '65']
Workload-1: 
['/opt/spec2017/benchspec/CPU/531.deepsjeng_r/run/run_base_refrate_gem5_se-m64.0000/deepsjeng_r_base.gem5_se-m64', '/opt/spec2017/benchspec/CPU/531.deepsjeng_r/run/run_base_refrate_gem5_se-m64.0000/ref.txt']
Workload-2: 
['/opt/spec2017/benchspec/CPU/507.cactuBSSN_r/run/run_base_refrate_gem5_se-m64.0000/cactusBSSN_r_base.gem5_se-m64', '/opt/spec2017/benchspec/CPU/507.cactuBSSN_r/run/run_base_refrate_gem5_se-m64.0000/spec_ref.par']
Workload-3: 
['/opt/spec2017/benchspec/CPU/541.leela_r/run/run_base_refrate_gem5_se-m64.0000/leela_r_base.gem5_se-m64', '/opt/spec2017/benchspec/CPU/541.leela_r/run/run_base_refrate_gem5_se-m64.0000/ref.sgf']
defense_enable:  True  detector:  MG  mitigation:  RFM  threshold:  800
mg_entries:  1700
rfm_maxacts_per_trefi:  79 rfm_per_trefi:  5 rfm_blast_radius:  1
Switch at curTick count:10000
warn: membus.master is deprecated. `master` is now called `mem_side_ports`
warn: No dot file generated. Please install pydot to generate the dot file and pdf.
info: Entering event queue @ 13945158484731.  Starting simulation...
warn: PowerState: Already in the requested power state, request ignored
Switched CPUS @ tick 13945158494731
switching cpus
**** REAL SIMULATION ****
info: Entering event queue @ 13945158494731.  Starting simulation...
warn: MOVNTDQ: Ignoring non-temporal hint, modeling as cacheable!
13948491818064: Event_285: system.switch_cpus3 progress event, total committed:18845789, progress insts committed: 18845789, IPC: 01.88269
13948491818064: Event_284: system.switch_cpus2 progress event, total committed:7311228, progress insts committed: 7311228, IPC: 0.730392
13948491818064: Event_283: system.switch_cpus1 progress event, total committed:21685036, progress insts committed: 21685036, IPC: 02.16634
13948491818064: Event_282: system.switch_cpus0 progress event, total committed:33747861, progress insts committed: 33747861, IPC: 03.37141
13951825151397: Event_282: system.switch_cpus0 progress event, total committed:68476911, progress insts committed: 34729050, IPC: 03.46943
13951825151397: Event_283: system.switch_cpus1 progress event, total committed:44598584, progress insts committed: 22913548, IPC: 02.28906
13951825151397: Event_284: system.switch_cpus2 progress event, total committed:14789620, progress insts committed: 7478392, IPC: 0.747091
13951825151397: Event_285: system.switch_cpus3 progress event, total committed:38760395, progress insts committed: 19914606, IPC: 01.98947
13955158484730: Event_285: system.switch_cpus3 progress event, total committed:58744001, progress insts committed: 19983606, IPC: 01.99636
13955158484730: Event_284: system.switch_cpus2 progress event, total committed:22256681, progress insts committed: 7467061, IPC: 0.745959
13955158484730: Event_283: system.switch_cpus1 progress event, total committed:67002260, progress insts committed: 22403676, IPC: 02.23813
13955158484730: Event_282: system.switch_cpus0 progress event, total committed:102870040, progress insts committed: 34393129, IPC: 03.43587
13958491818063: Event_282: system.switch_cpus0 progress event, total committed:137929339, progress insts committed: 35059299, IPC: 03.50242
13958491818063: Event_283: system.switch_cpus1 progress event, total committed:89716985, progress insts committed: 22714725, IPC: 002.2692
13958491818063: Event_284: system.switch_cpus2 progress event, total committed:29658576, progress insts committed: 7401895, IPC: 0.739449
13958491818063: Event_285: system.switch_cpus3 progress event, total committed:78704595, progress insts committed: 19960594, IPC: 01.99406
13961825151396: Event_285: system.switch_cpus3 progress event, total committed:98700540, progress insts committed: 19995945, IPC: 01.99759
13961825151396: Event_284: system.switch_cpus2 progress event, total committed:37079873, progress insts committed: 7421297, IPC: 0.741388
13961825151396: Event_283: system.switch_cpus1 progress event, total committed:112581394, progress insts committed: 22864409, IPC: 02.28415
13961825151396: Event_282: system.switch_cpus0 progress event, total committed:173030459, progress insts committed: 35101120, IPC: 003.5066
13965158484729: Event_282: system.switch_cpus0 progress event, total committed:207407469, progress insts committed: 34377010, IPC: 03.43426
13965158484729: Event_283: system.switch_cpus1 progress event, total committed:134991277, progress insts committed: 22409883, IPC: 02.23875
13965158484729: Event_284: system.switch_cpus2 progress event, total committed:44506993, progress insts committed: 7427120, IPC: 0.741969
13965158484729: Event_285: system.switch_cpus3 progress event, total committed:118727069, progress insts committed: 20026529, IPC: 02.00065
13968491818062: Event_285: system.switch_cpus3 progress event, total committed:138784389, progress insts committed: 20057320, IPC: 02.00373
13968491818062: Event_284: system.switch_cpus2 progress event, total committed:51981781, progress insts committed: 7474788, IPC: 0.746731
13968491818062: Event_283: system.switch_cpus1 progress event, total committed:156970780, progress insts committed: 21979503, IPC: 02.19575
13968491818062: Event_282: system.switch_cpus0 progress event, total committed:242337497, progress insts committed: 34930028, IPC: 03.48951
13971825151395: Event_282: system.switch_cpus0 progress event, total committed:276761099, progress insts committed: 34423602, IPC: 03.43892
13971825151395: Event_283: system.switch_cpus1 progress event, total committed:178860695, progress insts committed: 21889915, IPC: 002.1868
13971825151395: Event_284: system.switch_cpus2 progress event, total committed:59375100, progress insts committed: 7393319, IPC: 0.738593
13971825151395: Event_285: system.switch_cpus3 progress event, total committed:158827246, progress insts committed: 20042857, IPC: 02.00228
Exiting @ tick 13973744027241 because a thread reached the max instruction count
