
---------- Begin Simulation Statistics ----------
final_tick                               15684569425971                       # Number of ticks from beginning of simulation (restored from checkpoints and never reset)
host_inst_rate                                 175178                       # Simulator instruction rate (inst/s)
host_mem_usage                               17364348                       # Number of bytes of host memory used
host_op_rate                                   302342                       # Simulator op (including micro ops) rate (op/s)
host_seconds                                  4188.95                       # Real time elapsed on the host
host_tick_rate                                7952438                       # Simulator tick rate (ticks/s)
sim_freq                                 1000000000000                       # Frequency of simulated ticks
sim_insts                                   733813390                       # Number of instructions simulated
sim_ops                                    1266493512                       # Number of ops (including micro ops) simulated
sim_seconds                                  0.033312                       # Number of seconds simulated
sim_ticks                                 33312348639                       # Number of ticks simulated
system.cpu0.Branches                                4                       # Number of branches fetched
system.cpu0.committedInsts                         14                       # Number of instructions committed
system.cpu0.committedOps                           26                       # Number of ops (including micro ops) committed
system.cpu0.idle_fraction                           0                       # Percentage of idle cycles
system.cpu0.l2bus.snoop_filter.hit_multi_requests        27864                       # Number of requests hitting in the snoop filter with multiple (>1) holders of the requested data.
system.cpu0.l2bus.snoop_filter.hit_multi_snoops            0                       # Number of snoops hitting in the snoop filter with multiple (>1) holders of the requested data.
system.cpu0.l2bus.snoop_filter.hit_single_requests      1723658                       # Number of requests hitting in the snoop filter with a single holder of the requested data.
system.cpu0.l2bus.snoop_filter.hit_single_snoops            0                       # Number of snoops hitting in the snoop filter with a single holder of the requested data.
system.cpu0.l2bus.snoop_filter.tot_requests      3448318                       # Total number of requests made to the snoop filter.
system.cpu0.l2bus.snoop_filter.tot_snoops            0                       # Total number of snoops made to the snoop filter.
system.cpu0.mmucache.mmubus.snoop_filter.hit_multi_requests            0                       # Number of requests hitting in the snoop filter with multiple (>1) holders of the requested data.
system.cpu0.mmucache.mmubus.snoop_filter.hit_multi_snoops            0                       # Number of snoops hitting in the snoop filter with multiple (>1) holders of the requested data.
system.cpu0.mmucache.mmubus.snoop_filter.hit_single_requests            0                       # Number of requests hitting in the snoop filter with a single holder of the requested data.
system.cpu0.mmucache.mmubus.snoop_filter.hit_single_snoops            0                       # Number of snoops hitting in the snoop filter with a single holder of the requested data.
system.cpu0.mmucache.mmubus.snoop_filter.tot_requests            0                       # Total number of requests made to the snoop filter.
system.cpu0.mmucache.mmubus.snoop_filter.tot_snoops            0                       # Total number of snoops made to the snoop filter.
system.cpu0.not_idle_fraction                       1                       # Percentage of non-idle cycles
system.cpu0.numCycles                              30                       # number of cpu cycles simulated
system.cpu0.numWorkItemsCompleted                   0                       # number of work items this cpu completed
system.cpu0.numWorkItemsStarted                     0                       # number of work items this cpu started
system.cpu0.num_busy_cycles                        30                       # Number of busy cycles
system.cpu0.num_cc_register_reads                  13                       # number of times the CC registers were read
system.cpu0.num_cc_register_writes                  6                       # number of times the CC registers were written
system.cpu0.num_conditional_control_insts            2                       # number of instructions that are conditional controls
system.cpu0.num_fp_alu_accesses                     6                       # Number of float alu accesses
system.cpu0.num_fp_insts                            6                       # number of float instructions
system.cpu0.num_fp_register_reads                   7                       # number of times the floating registers were read
system.cpu0.num_fp_register_writes                  5                       # number of times the floating registers were written
system.cpu0.num_func_calls                          2                       # number of times a function call or return occured
system.cpu0.num_idle_cycles                         0                       # Number of idle cycles
system.cpu0.num_int_alu_accesses                   24                       # Number of integer alu accesses
system.cpu0.num_int_insts                          24                       # number of integer instructions
system.cpu0.num_int_register_reads                 48                       # number of times the integer registers were read
system.cpu0.num_int_register_writes                15                       # number of times the integer registers were written
system.cpu0.num_load_insts                          5                       # Number of load instructions
system.cpu0.num_mem_refs                            7                       # number of memory refs
system.cpu0.num_store_insts                         2                       # Number of store instructions
system.cpu0.num_vec_alu_accesses                    0                       # Number of vector alu accesses
system.cpu0.num_vec_insts                           0                       # number of vector instructions
system.cpu0.num_vec_register_reads                  0                       # number of times the vector registers were read
system.cpu0.num_vec_register_writes                 0                       # number of times the vector registers were written
system.cpu0.op_class::No_OpClass                    0      0.00%      0.00% # Class of executed instruction
system.cpu0.op_class::IntAlu                       17     65.38%     65.38% # Class of executed instruction
system.cpu0.op_class::IntMult                       0      0.00%     65.38% # Class of executed instruction
system.cpu0.op_class::IntDiv                        0      0.00%     65.38% # Class of executed instruction
system.cpu0.op_class::FloatAdd                      0      0.00%     65.38% # Class of executed instruction
system.cpu0.op_class::FloatCmp                      0      0.00%     65.38% # Class of executed instruction
system.cpu0.op_class::FloatCvt                      0      0.00%     65.38% # Class of executed instruction
system.cpu0.op_class::FloatMult                     0      0.00%     65.38% # Class of executed instruction
system.cpu0.op_class::FloatMultAcc                  0      0.00%     65.38% # Class of executed instruction
system.cpu0.op_class::FloatDiv                      0      0.00%     65.38% # Class of executed instruction
system.cpu0.op_class::FloatMisc                     0      0.00%     65.38% # Class of executed instruction
system.cpu0.op_class::FloatSqrt                     0      0.00%     65.38% # Class of executed instruction
system.cpu0.op_class::SimdAdd                       0      0.00%     65.38% # Class of executed instruction
system.cpu0.op_class::SimdAddAcc                    0      0.00%     65.38% # Class of executed instruction
system.cpu0.op_class::SimdAlu                       0      0.00%     65.38% # Class of executed instruction
system.cpu0.op_class::SimdCmp                       0      0.00%     65.38% # Class of executed instruction
system.cpu0.op_class::SimdCvt                       0      0.00%     65.38% # Class of executed instruction
system.cpu0.op_class::SimdMisc                      0      0.00%     65.38% # Class of executed instruction
system.cpu0.op_class::SimdMult                      0      0.00%     65.38% # Class of executed instruction
system.cpu0.op_class::SimdMultAcc                   0      0.00%     65.38% # Class of executed instruction
system.cpu0.op_class::SimdShift                     0      0.00%     65.38% # Class of executed instruction
system.cpu0.op_class::SimdShiftAcc                  0      0.00%     65.38% # Class of executed instruction
system.cpu0.op_class::SimdDiv                       0      0.00%     65.38% # Class of executed instruction
system.cpu0.op_class::SimdSqrt                      0      0.00%     65.38% # Class of executed instruction
system.cpu0.op_class::SimdFloatAdd                  1      3.85%     69.23% # Class of executed instruction
system.cpu0.op_class::SimdFloatAlu                  0      0.00%     69.23% # Class of executed instruction
system.cpu0.op_class::SimdFloatCmp                  0      0.00%     69.23% # Class of executed instruction
system.cpu0.op_class::SimdFloatCvt                  0      0.00%     69.23% # Class of executed instruction
system.cpu0.op_class::SimdFloatDiv                  0      0.00%     69.23% # Class of executed instruction
system.cpu0.op_class::SimdFloatMisc                 0      0.00%     69.23% # Class of executed instruction
system.cpu0.op_class::SimdFloatMult                 1      3.85%     73.08% # Class of executed instruction
system.cpu0.op_class::SimdFloatMultAcc              0      0.00%     73.08% # Class of executed instruction
system.cpu0.op_class::SimdFloatSqrt                 0      0.00%     73.08% # Class of executed instruction
system.cpu0.op_class::SimdReduceAdd                 0      0.00%     73.08% # Class of executed instruction
system.cpu0.op_class::SimdReduceAlu                 0      0.00%     73.08% # Class of executed instruction
system.cpu0.op_class::SimdReduceCmp                 0      0.00%     73.08% # Class of executed instruction
system.cpu0.op_class::SimdFloatReduceAdd            0      0.00%     73.08% # Class of executed instruction
system.cpu0.op_class::SimdFloatReduceCmp            0      0.00%     73.08% # Class of executed instruction
system.cpu0.op_class::SimdAes                       0      0.00%     73.08% # Class of executed instruction
system.cpu0.op_class::SimdAesMix                    0      0.00%     73.08% # Class of executed instruction
system.cpu0.op_class::SimdSha1Hash                  0      0.00%     73.08% # Class of executed instruction
system.cpu0.op_class::SimdSha1Hash2                 0      0.00%     73.08% # Class of executed instruction
system.cpu0.op_class::SimdSha256Hash                0      0.00%     73.08% # Class of executed instruction
system.cpu0.op_class::SimdSha256Hash2               0      0.00%     73.08% # Class of executed instruction
system.cpu0.op_class::SimdShaSigma2                 0      0.00%     73.08% # Class of executed instruction
system.cpu0.op_class::SimdShaSigma3                 0      0.00%     73.08% # Class of executed instruction
system.cpu0.op_class::SimdPredAlu                   0      0.00%     73.08% # Class of executed instruction
system.cpu0.op_class::MemRead                       2      7.69%     80.77% # Class of executed instruction
system.cpu0.op_class::MemWrite                      1      3.85%     84.62% # Class of executed instruction
system.cpu0.op_class::FloatMemRead                  3     11.54%     96.15% # Class of executed instruction
system.cpu0.op_class::FloatMemWrite                 1      3.85%    100.00% # Class of executed instruction
system.cpu0.op_class::IprAccess                     0      0.00%    100.00% # Class of executed instruction
system.cpu0.op_class::InstPrefetch                  0      0.00%    100.00% # Class of executed instruction
system.cpu0.op_class::total                        26                       # Class of executed instruction
system.cpu0.workload.numSyscalls                    2                       # Number of system calls
system.cpu1.Branches                                1                       # Number of branches fetched
system.cpu1.committedInsts                         14                       # Number of instructions committed
system.cpu1.committedOps                           23                       # Number of ops (including micro ops) committed
system.cpu1.idle_fraction                           0                       # Percentage of idle cycles
system.cpu1.l2bus.snoop_filter.hit_multi_requests            2                       # Number of requests hitting in the snoop filter with multiple (>1) holders of the requested data.
system.cpu1.l2bus.snoop_filter.hit_multi_snoops            0                       # Number of snoops hitting in the snoop filter with multiple (>1) holders of the requested data.
system.cpu1.l2bus.snoop_filter.hit_single_requests      1513886                       # Number of requests hitting in the snoop filter with a single holder of the requested data.
system.cpu1.l2bus.snoop_filter.hit_single_snoops         2020                       # Number of snoops hitting in the snoop filter with a single holder of the requested data.
system.cpu1.l2bus.snoop_filter.tot_requests      2958956                       # Total number of requests made to the snoop filter.
system.cpu1.l2bus.snoop_filter.tot_snoops         2020                       # Total number of snoops made to the snoop filter.
system.cpu1.mmucache.mmubus.snoop_filter.hit_multi_requests            0                       # Number of requests hitting in the snoop filter with multiple (>1) holders of the requested data.
system.cpu1.mmucache.mmubus.snoop_filter.hit_multi_snoops            0                       # Number of snoops hitting in the snoop filter with multiple (>1) holders of the requested data.
system.cpu1.mmucache.mmubus.snoop_filter.hit_single_requests            0                       # Number of requests hitting in the snoop filter with a single holder of the requested data.
system.cpu1.mmucache.mmubus.snoop_filter.hit_single_snoops            0                       # Number of snoops hitting in the snoop filter with a single holder of the requested data.
system.cpu1.mmucache.mmubus.snoop_filter.tot_requests            0                       # Total number of requests made to the snoop filter.
system.cpu1.mmucache.mmubus.snoop_filter.tot_snoops            0                       # Total number of snoops made to the snoop filter.
system.cpu1.not_idle_fraction                       1                       # Percentage of non-idle cycles
system.cpu1.numCycles                              30                       # number of cpu cycles simulated
system.cpu1.numWorkItemsCompleted                   0                       # number of work items this cpu completed
system.cpu1.numWorkItemsStarted                     0                       # number of work items this cpu started
system.cpu1.num_busy_cycles                        30                       # Number of busy cycles
system.cpu1.num_cc_register_reads                   5                       # number of times the CC registers were read
system.cpu1.num_cc_register_writes                  8                       # number of times the CC registers were written
system.cpu1.num_conditional_control_insts            1                       # number of instructions that are conditional controls
system.cpu1.num_fp_alu_accesses                    12                       # Number of float alu accesses
system.cpu1.num_fp_insts                           12                       # number of float instructions
system.cpu1.num_fp_register_reads                  21                       # number of times the floating registers were read
system.cpu1.num_fp_register_writes                 11                       # number of times the floating registers were written
system.cpu1.num_func_calls                          0                       # number of times a function call or return occured
system.cpu1.num_idle_cycles                         0                       # Number of idle cycles
system.cpu1.num_int_alu_accesses                   16                       # Number of integer alu accesses
system.cpu1.num_int_insts                          16                       # number of integer instructions
system.cpu1.num_int_register_reads                 33                       # number of times the integer registers were read
system.cpu1.num_int_register_writes                10                       # number of times the integer registers were written
system.cpu1.num_load_insts                          6                       # Number of load instructions
system.cpu1.num_mem_refs                            7                       # number of memory refs
system.cpu1.num_store_insts                         1                       # Number of store instructions
system.cpu1.num_vec_alu_accesses                    0                       # Number of vector alu accesses
system.cpu1.num_vec_insts                           0                       # number of vector instructions
system.cpu1.num_vec_register_reads                  0                       # number of times the vector registers were read
system.cpu1.num_vec_register_writes                 0                       # number of times the vector registers were written
system.cpu1.op_class::No_OpClass                    0      0.00%      0.00% # Class of executed instruction
system.cpu1.op_class::IntAlu                       10     43.48%     43.48% # Class of executed instruction
system.cpu1.op_class::IntMult                       0      0.00%     43.48% # Class of executed instruction
system.cpu1.op_class::IntDiv                        0      0.00%     43.48% # Class of executed instruction
system.cpu1.op_class::FloatAdd                      0      0.00%     43.48% # Class of executed instruction
system.cpu1.op_class::FloatCmp                      0      0.00%     43.48% # Class of executed instruction
system.cpu1.op_class::FloatCvt                      0      0.00%     43.48% # Class of executed instruction
system.cpu1.op_class::FloatMult                     0      0.00%     43.48% # Class of executed instruction
system.cpu1.op_class::FloatMultAcc                  0      0.00%     43.48% # Class of executed instruction
system.cpu1.op_class::FloatDiv                      0      0.00%     43.48% # Class of executed instruction
system.cpu1.op_class::FloatMisc                     0      0.00%     43.48% # Class of executed instruction
system.cpu1.op_class::FloatSqrt                     0      0.00%     43.48% # Class of executed instruction
system.cpu1.op_class::SimdAdd                       0      0.00%     43.48% # Class of executed instruction
system.cpu1.op_class::SimdAddAcc                    0      0.00%     43.48% # Class of executed instruction
system.cpu1.op_class::SimdAlu                       0      0.00%     43.48% # Class of executed instruction
system.cpu1.op_class::SimdCmp                       0      0.00%     43.48% # Class of executed instruction
system.cpu1.op_class::SimdCvt                       0      0.00%     43.48% # Class of executed instruction
system.cpu1.op_class::SimdMisc                      0      0.00%     43.48% # Class of executed instruction
system.cpu1.op_class::SimdMult                      0      0.00%     43.48% # Class of executed instruction
system.cpu1.op_class::SimdMultAcc                   0      0.00%     43.48% # Class of executed instruction
system.cpu1.op_class::SimdShift                     0      0.00%     43.48% # Class of executed instruction
system.cpu1.op_class::SimdShiftAcc                  0      0.00%     43.48% # Class of executed instruction
system.cpu1.op_class::SimdDiv                       0      0.00%     43.48% # Class of executed instruction
system.cpu1.op_class::SimdSqrt                      0      0.00%     43.48% # Class of executed instruction
system.cpu1.op_class::SimdFloatAdd                  4     17.39%     60.87% # Class of executed instruction
system.cpu1.op_class::SimdFloatAlu                  0      0.00%     60.87% # Class of executed instruction
system.cpu1.op_class::SimdFloatCmp                  0      0.00%     60.87% # Class of executed instruction
system.cpu1.op_class::SimdFloatCvt                  0      0.00%     60.87% # Class of executed instruction
system.cpu1.op_class::SimdFloatDiv                  0      0.00%     60.87% # Class of executed instruction
system.cpu1.op_class::SimdFloatMisc                 0      0.00%     60.87% # Class of executed instruction
system.cpu1.op_class::SimdFloatMult                 2      8.70%     69.57% # Class of executed instruction
system.cpu1.op_class::SimdFloatMultAcc              0      0.00%     69.57% # Class of executed instruction
system.cpu1.op_class::SimdFloatSqrt                 0      0.00%     69.57% # Class of executed instruction
system.cpu1.op_class::SimdReduceAdd                 0      0.00%     69.57% # Class of executed instruction
system.cpu1.op_class::SimdReduceAlu                 0      0.00%     69.57% # Class of executed instruction
system.cpu1.op_class::SimdReduceCmp                 0      0.00%     69.57% # Class of executed instruction
system.cpu1.op_class::SimdFloatReduceAdd            0      0.00%     69.57% # Class of executed instruction
system.cpu1.op_class::SimdFloatReduceCmp            0      0.00%     69.57% # Class of executed instruction
system.cpu1.op_class::SimdAes                       0      0.00%     69.57% # Class of executed instruction
system.cpu1.op_class::SimdAesMix                    0      0.00%     69.57% # Class of executed instruction
system.cpu1.op_class::SimdSha1Hash                  0      0.00%     69.57% # Class of executed instruction
system.cpu1.op_class::SimdSha1Hash2                 0      0.00%     69.57% # Class of executed instruction
system.cpu1.op_class::SimdSha256Hash                0      0.00%     69.57% # Class of executed instruction
system.cpu1.op_class::SimdSha256Hash2               0      0.00%     69.57% # Class of executed instruction
system.cpu1.op_class::SimdShaSigma2                 0      0.00%     69.57% # Class of executed instruction
system.cpu1.op_class::SimdShaSigma3                 0      0.00%     69.57% # Class of executed instruction
system.cpu1.op_class::SimdPredAlu                   0      0.00%     69.57% # Class of executed instruction
system.cpu1.op_class::MemRead                       2      8.70%     78.26% # Class of executed instruction
system.cpu1.op_class::MemWrite                      0      0.00%     78.26% # Class of executed instruction
system.cpu1.op_class::FloatMemRead                  4     17.39%     95.65% # Class of executed instruction
system.cpu1.op_class::FloatMemWrite                 1      4.35%    100.00% # Class of executed instruction
system.cpu1.op_class::IprAccess                     0      0.00%    100.00% # Class of executed instruction
system.cpu1.op_class::InstPrefetch                  0      0.00%    100.00% # Class of executed instruction
system.cpu1.op_class::total                        23                       # Class of executed instruction
system.cpu1.workload.numSyscalls                    0                       # Number of system calls
system.cpu2.Branches                                1                       # Number of branches fetched
system.cpu2.committedInsts                         17                       # Number of instructions committed
system.cpu2.committedOps                           23                       # Number of ops (including micro ops) committed
system.cpu2.idle_fraction                           0                       # Percentage of idle cycles
system.cpu2.l2bus.snoop_filter.hit_multi_requests            0                       # Number of requests hitting in the snoop filter with multiple (>1) holders of the requested data.
system.cpu2.l2bus.snoop_filter.hit_multi_snoops            0                       # Number of snoops hitting in the snoop filter with multiple (>1) holders of the requested data.
system.cpu2.l2bus.snoop_filter.hit_single_requests      1838352                       # Number of requests hitting in the snoop filter with a single holder of the requested data.
system.cpu2.l2bus.snoop_filter.hit_single_snoops          489                       # Number of snoops hitting in the snoop filter with a single holder of the requested data.
system.cpu2.l2bus.snoop_filter.tot_requests      3667596                       # Total number of requests made to the snoop filter.
system.cpu2.l2bus.snoop_filter.tot_snoops          489                       # Total number of snoops made to the snoop filter.
system.cpu2.mmucache.mmubus.snoop_filter.hit_multi_requests            0                       # Number of requests hitting in the snoop filter with multiple (>1) holders of the requested data.
system.cpu2.mmucache.mmubus.snoop_filter.hit_multi_snoops            0                       # Number of snoops hitting in the snoop filter with multiple (>1) holders of the requested data.
system.cpu2.mmucache.mmubus.snoop_filter.hit_single_requests            0                       # Number of requests hitting in the snoop filter with a single holder of the requested data.
system.cpu2.mmucache.mmubus.snoop_filter.hit_single_snoops            0                       # Number of snoops hitting in the snoop filter with a single holder of the requested data.
system.cpu2.mmucache.mmubus.snoop_filter.tot_requests            0                       # Total number of requests made to the snoop filter.
system.cpu2.mmucache.mmubus.snoop_filter.tot_snoops            0                       # Total number of snoops made to the snoop filter.
system.cpu2.not_idle_fraction                       1                       # Percentage of non-idle cycles
system.cpu2.numCycles                              30                       # number of cpu cycles simulated
system.cpu2.numWorkItemsCompleted                   0                       # number of work items this cpu completed
system.cpu2.numWorkItemsStarted                     0                       # number of work items this cpu started
system.cpu2.num_busy_cycles                        30                       # Number of busy cycles
system.cpu2.num_cc_register_reads                   5                       # number of times the CC registers were read
system.cpu2.num_cc_register_writes                  2                       # number of times the CC registers were written
system.cpu2.num_conditional_control_insts            1                       # number of instructions that are conditional controls
system.cpu2.num_fp_alu_accesses                    14                       # Number of float alu accesses
system.cpu2.num_fp_insts                           14                       # number of float instructions
system.cpu2.num_fp_register_reads                  30                       # number of times the floating registers were read
system.cpu2.num_fp_register_writes                 14                       # number of times the floating registers were written
system.cpu2.num_func_calls                          0                       # number of times a function call or return occured
system.cpu2.num_idle_cycles                         0                       # Number of idle cycles
system.cpu2.num_int_alu_accesses                   12                       # Number of integer alu accesses
system.cpu2.num_int_insts                          12                       # number of integer instructions
system.cpu2.num_int_register_reads                 25                       # number of times the integer registers were read
system.cpu2.num_int_register_writes                 8                       # number of times the integer registers were written
system.cpu2.num_load_insts                          3                       # Number of load instructions
system.cpu2.num_mem_refs                            3                       # number of memory refs
system.cpu2.num_store_insts                         0                       # Number of store instructions
system.cpu2.num_vec_alu_accesses                    0                       # Number of vector alu accesses
system.cpu2.num_vec_insts                           0                       # number of vector instructions
system.cpu2.num_vec_register_reads                  0                       # number of times the vector registers were read
system.cpu2.num_vec_register_writes                 0                       # number of times the vector registers were written
system.cpu2.op_class::No_OpClass                    0      0.00%      0.00% # Class of executed instruction
system.cpu2.op_class::IntAlu                       12     52.17%     52.17% # Class of executed instruction
system.cpu2.op_class::IntMult                       0      0.00%     52.17% # Class of executed instruction
system.cpu2.op_class::IntDiv                        0      0.00%     52.17% # Class of executed instruction
system.cpu2.op_class::FloatAdd                      0      0.00%     52.17% # Class of executed instruction
system.cpu2.op_class::FloatCmp                      0      0.00%     52.17% # Class of executed instruction
system.cpu2.op_class::FloatCvt                      0      0.00%     52.17% # Class of executed instruction
system.cpu2.op_class::FloatMult                     0      0.00%     52.17% # Class of executed instruction
system.cpu2.op_class::FloatMultAcc                  0      0.00%     52.17% # Class of executed instruction
system.cpu2.op_class::FloatDiv                      0      0.00%     52.17% # Class of executed instruction
system.cpu2.op_class::FloatMisc                     0      0.00%     52.17% # Class of executed instruction
system.cpu2.op_class::FloatSqrt                     0      0.00%     52.17% # Class of executed instruction
system.cpu2.op_class::SimdAdd                       0      0.00%     52.17% # Class of executed instruction
system.cpu2.op_class::SimdAddAcc                    0      0.00%     52.17% # Class of executed instruction
system.cpu2.op_class::SimdAlu                       0      0.00%     52.17% # Class of executed instruction
system.cpu2.op_class::SimdCmp                       0      0.00%     52.17% # Class of executed instruction
system.cpu2.op_class::SimdCvt                       0      0.00%     52.17% # Class of executed instruction
system.cpu2.op_class::SimdMisc                      0      0.00%     52.17% # Class of executed instruction
system.cpu2.op_class::SimdMult                      0      0.00%     52.17% # Class of executed instruction
system.cpu2.op_class::SimdMultAcc                   0      0.00%     52.17% # Class of executed instruction
system.cpu2.op_class::SimdShift                     0      0.00%     52.17% # Class of executed instruction
system.cpu2.op_class::SimdShiftAcc                  0      0.00%     52.17% # Class of executed instruction
system.cpu2.op_class::SimdDiv                       0      0.00%     52.17% # Class of executed instruction
system.cpu2.op_class::SimdSqrt                      0      0.00%     52.17% # Class of executed instruction
system.cpu2.op_class::SimdFloatAdd                  5     21.74%     73.91% # Class of executed instruction
system.cpu2.op_class::SimdFloatAlu                  0      0.00%     73.91% # Class of executed instruction
system.cpu2.op_class::SimdFloatCmp                  0      0.00%     73.91% # Class of executed instruction
system.cpu2.op_class::SimdFloatCvt                  0      0.00%     73.91% # Class of executed instruction
system.cpu2.op_class::SimdFloatDiv                  0      0.00%     73.91% # Class of executed instruction
system.cpu2.op_class::SimdFloatMisc                 0      0.00%     73.91% # Class of executed instruction
system.cpu2.op_class::SimdFloatMult                 3     13.04%     86.96% # Class of executed instruction
system.cpu2.op_class::SimdFloatMultAcc              0      0.00%     86.96% # Class of executed instruction
system.cpu2.op_class::SimdFloatSqrt                 0      0.00%     86.96% # Class of executed instruction
system.cpu2.op_class::SimdReduceAdd                 0      0.00%     86.96% # Class of executed instruction
system.cpu2.op_class::SimdReduceAlu                 0      0.00%     86.96% # Class of executed instruction
system.cpu2.op_class::SimdReduceCmp                 0      0.00%     86.96% # Class of executed instruction
system.cpu2.op_class::SimdFloatReduceAdd            0      0.00%     86.96% # Class of executed instruction
system.cpu2.op_class::SimdFloatReduceCmp            0      0.00%     86.96% # Class of executed instruction
system.cpu2.op_class::SimdAes                       0      0.00%     86.96% # Class of executed instruction
system.cpu2.op_class::SimdAesMix                    0      0.00%     86.96% # Class of executed instruction
system.cpu2.op_class::SimdSha1Hash                  0      0.00%     86.96% # Class of executed instruction
system.cpu2.op_class::SimdSha1Hash2                 0      0.00%     86.96% # Class of executed instruction
system.cpu2.op_class::SimdSha256Hash                0      0.00%     86.96% # Class of executed instruction
system.cpu2.op_class::SimdSha256Hash2               0      0.00%     86.96% # Class of executed instruction
system.cpu2.op_class::SimdShaSigma2                 0      0.00%     86.96% # Class of executed instruction
system.cpu2.op_class::SimdShaSigma3                 0      0.00%     86.96% # Class of executed instruction
system.cpu2.op_class::SimdPredAlu                   0      0.00%     86.96% # Class of executed instruction
system.cpu2.op_class::MemRead                       0      0.00%     86.96% # Class of executed instruction
system.cpu2.op_class::MemWrite                      0      0.00%     86.96% # Class of executed instruction
system.cpu2.op_class::FloatMemRead                  3     13.04%    100.00% # Class of executed instruction
system.cpu2.op_class::FloatMemWrite                 0      0.00%    100.00% # Class of executed instruction
system.cpu2.op_class::IprAccess                     0      0.00%    100.00% # Class of executed instruction
system.cpu2.op_class::InstPrefetch                  0      0.00%    100.00% # Class of executed instruction
system.cpu2.op_class::total                        23                       # Class of executed instruction
system.cpu2.workload.numSyscalls                    0                       # Number of system calls
system.cpu3.Branches                                2                       # Number of branches fetched
system.cpu3.committedInsts                         16                       # Number of instructions committed
system.cpu3.committedOps                           28                       # Number of ops (including micro ops) committed
system.cpu3.idle_fraction                           0                       # Percentage of idle cycles
system.cpu3.l2bus.snoop_filter.hit_multi_requests            2                       # Number of requests hitting in the snoop filter with multiple (>1) holders of the requested data.
system.cpu3.l2bus.snoop_filter.hit_multi_snoops            0                       # Number of snoops hitting in the snoop filter with multiple (>1) holders of the requested data.
system.cpu3.l2bus.snoop_filter.hit_single_requests        35232                       # Number of requests hitting in the snoop filter with a single holder of the requested data.
system.cpu3.l2bus.snoop_filter.hit_single_snoops          525                       # Number of snoops hitting in the snoop filter with a single holder of the requested data.
system.cpu3.l2bus.snoop_filter.tot_requests        71251                       # Total number of requests made to the snoop filter.
system.cpu3.l2bus.snoop_filter.tot_snoops          525                       # Total number of snoops made to the snoop filter.
system.cpu3.mmucache.mmubus.snoop_filter.hit_multi_requests            0                       # Number of requests hitting in the snoop filter with multiple (>1) holders of the requested data.
system.cpu3.mmucache.mmubus.snoop_filter.hit_multi_snoops            0                       # Number of snoops hitting in the snoop filter with multiple (>1) holders of the requested data.
system.cpu3.mmucache.mmubus.snoop_filter.hit_single_requests            0                       # Number of requests hitting in the snoop filter with a single holder of the requested data.
system.cpu3.mmucache.mmubus.snoop_filter.hit_single_snoops            0                       # Number of snoops hitting in the snoop filter with a single holder of the requested data.
system.cpu3.mmucache.mmubus.snoop_filter.tot_requests            0                       # Total number of requests made to the snoop filter.
system.cpu3.mmucache.mmubus.snoop_filter.tot_snoops            0                       # Total number of snoops made to the snoop filter.
system.cpu3.not_idle_fraction                       1                       # Percentage of non-idle cycles
system.cpu3.numCycles                              31                       # number of cpu cycles simulated
system.cpu3.numWorkItemsCompleted                   0                       # number of work items this cpu completed
system.cpu3.numWorkItemsStarted                     0                       # number of work items this cpu started
system.cpu3.num_busy_cycles                        31                       # Number of busy cycles
system.cpu3.num_cc_register_reads                  10                       # number of times the CC registers were read
system.cpu3.num_cc_register_writes                 18                       # number of times the CC registers were written
system.cpu3.num_conditional_control_insts            2                       # number of instructions that are conditional controls
system.cpu3.num_fp_alu_accesses                     0                       # Number of float alu accesses
system.cpu3.num_fp_insts                            0                       # number of float instructions
system.cpu3.num_fp_register_reads                   0                       # number of times the floating registers were read
system.cpu3.num_fp_register_writes                  0                       # number of times the floating registers were written
system.cpu3.num_func_calls                          0                       # number of times a function call or return occured
system.cpu3.num_idle_cycles                         0                       # Number of idle cycles
system.cpu3.num_int_alu_accesses                   28                       # Number of integer alu accesses
system.cpu3.num_int_insts                          28                       # number of integer instructions
system.cpu3.num_int_register_reads                 54                       # number of times the integer registers were read
system.cpu3.num_int_register_writes                28                       # number of times the integer registers were written
system.cpu3.num_load_insts                          6                       # Number of load instructions
system.cpu3.num_mem_refs                            6                       # number of memory refs
system.cpu3.num_store_insts                         0                       # Number of store instructions
system.cpu3.num_vec_alu_accesses                    0                       # Number of vector alu accesses
system.cpu3.num_vec_insts                           0                       # number of vector instructions
system.cpu3.num_vec_register_reads                  0                       # number of times the vector registers were read
system.cpu3.num_vec_register_writes                 0                       # number of times the vector registers were written
system.cpu3.op_class::No_OpClass                    0      0.00%      0.00% # Class of executed instruction
system.cpu3.op_class::IntAlu                       20     71.43%     71.43% # Class of executed instruction
system.cpu3.op_class::IntMult                       2      7.14%     78.57% # Class of executed instruction
system.cpu3.op_class::IntDiv                        0      0.00%     78.57% # Class of executed instruction
system.cpu3.op_class::FloatAdd                      0      0.00%     78.57% # Class of executed instruction
system.cpu3.op_class::FloatCmp                      0      0.00%     78.57% # Class of executed instruction
system.cpu3.op_class::FloatCvt                      0      0.00%     78.57% # Class of executed instruction
system.cpu3.op_class::FloatMult                     0      0.00%     78.57% # Class of executed instruction
system.cpu3.op_class::FloatMultAcc                  0      0.00%     78.57% # Class of executed instruction
system.cpu3.op_class::FloatDiv                      0      0.00%     78.57% # Class of executed instruction
system.cpu3.op_class::FloatMisc                     0      0.00%     78.57% # Class of executed instruction
system.cpu3.op_class::FloatSqrt                     0      0.00%     78.57% # Class of executed instruction
system.cpu3.op_class::SimdAdd                       0      0.00%     78.57% # Class of executed instruction
system.cpu3.op_class::SimdAddAcc                    0      0.00%     78.57% # Class of executed instruction
system.cpu3.op_class::SimdAlu                       0      0.00%     78.57% # Class of executed instruction
system.cpu3.op_class::SimdCmp                       0      0.00%     78.57% # Class of executed instruction
system.cpu3.op_class::SimdCvt                       0      0.00%     78.57% # Class of executed instruction
system.cpu3.op_class::SimdMisc                      0      0.00%     78.57% # Class of executed instruction
system.cpu3.op_class::SimdMult                      0      0.00%     78.57% # Class of executed instruction
system.cpu3.op_class::SimdMultAcc                   0      0.00%     78.57% # Class of executed instruction
system.cpu3.op_class::SimdShift                     0      0.00%     78.57% # Class of executed instruction
system.cpu3.op_class::SimdShiftAcc                  0      0.00%     78.57% # Class of executed instruction
system.cpu3.op_class::SimdDiv                       0      0.00%     78.57% # Class of executed instruction
system.cpu3.op_class::SimdSqrt                      0      0.00%     78.57% # Class of executed instruction
system.cpu3.op_class::SimdFloatAdd                  0      0.00%     78.57% # Class of executed instruction
system.cpu3.op_class::SimdFloatAlu                  0      0.00%     78.57% # Class of executed instruction
system.cpu3.op_class::SimdFloatCmp                  0      0.00%     78.57% # Class of executed instruction
system.cpu3.op_class::SimdFloatCvt                  0      0.00%     78.57% # Class of executed instruction
system.cpu3.op_class::SimdFloatDiv                  0      0.00%     78.57% # Class of executed instruction
system.cpu3.op_class::SimdFloatMisc                 0      0.00%     78.57% # Class of executed instruction
system.cpu3.op_class::SimdFloatMult                 0      0.00%     78.57% # Class of executed instruction
system.cpu3.op_class::SimdFloatMultAcc              0      0.00%     78.57% # Class of executed instruction
system.cpu3.op_class::SimdFloatSqrt                 0      0.00%     78.57% # Class of executed instruction
system.cpu3.op_class::SimdReduceAdd                 0      0.00%     78.57% # Class of executed instruction
system.cpu3.op_class::SimdReduceAlu                 0      0.00%     78.57% # Class of executed instruction
system.cpu3.op_class::SimdReduceCmp                 0      0.00%     78.57% # Class of executed instruction
system.cpu3.op_class::SimdFloatReduceAdd            0      0.00%     78.57% # Class of executed instruction
system.cpu3.op_class::SimdFloatReduceCmp            0      0.00%     78.57% # Class of executed instruction
system.cpu3.op_class::SimdAes                       0      0.00%     78.57% # Class of executed instruction
system.cpu3.op_class::SimdAesMix                    0      0.00%     78.57% # Class of executed instruction
system.cpu3.op_class::SimdSha1Hash                  0      0.00%     78.57% # Class of executed instruction
system.cpu3.op_class::SimdSha1Hash2                 0      0.00%     78.57% # Class of executed instruction
system.cpu3.op_class::SimdSha256Hash                0      0.00%     78.57% # Class of executed instruction
system.cpu3.op_class::SimdSha256Hash2               0      0.00%     78.57% # Class of executed instruction
system.cpu3.op_class::SimdShaSigma2                 0      0.00%     78.57% # Class of executed instruction
system.cpu3.op_class::SimdShaSigma3                 0      0.00%     78.57% # Class of executed instruction
system.cpu3.op_class::SimdPredAlu                   0      0.00%     78.57% # Class of executed instruction
system.cpu3.op_class::MemRead                       6     21.43%    100.00% # Class of executed instruction
system.cpu3.op_class::MemWrite                      0      0.00%    100.00% # Class of executed instruction
system.cpu3.op_class::FloatMemRead                  0      0.00%    100.00% # Class of executed instruction
system.cpu3.op_class::FloatMemWrite                 0      0.00%    100.00% # Class of executed instruction
system.cpu3.op_class::IprAccess                     0      0.00%    100.00% # Class of executed instruction
system.cpu3.op_class::InstPrefetch                  0      0.00%    100.00% # Class of executed instruction
system.cpu3.op_class::total                        28                       # Class of executed instruction
system.cpu3.workload.numSyscalls                    0                       # Number of system calls
system.l3bus.snoop_filter.hit_multi_requests            0                       # Number of requests hitting in the snoop filter with multiple (>1) holders of the requested data.
system.l3bus.snoop_filter.hit_multi_snoops            0                       # Number of snoops hitting in the snoop filter with multiple (>1) holders of the requested data.
system.l3bus.snoop_filter.hit_single_requests      1225177                       # Number of requests hitting in the snoop filter with a single holder of the requested data.
system.l3bus.snoop_filter.hit_single_snoops            0                       # Number of snoops hitting in the snoop filter with a single holder of the requested data.
system.l3bus.snoop_filter.tot_requests        2465789                       # Total number of requests made to the snoop filter.
system.l3bus.snoop_filter.tot_snoops                0                       # Total number of snoops made to the snoop filter.
system.membus.snoop_filter.hit_multi_requests            0                       # Number of requests hitting in the snoop filter with multiple (>1) holders of the requested data.
system.membus.snoop_filter.hit_multi_snoops            0                       # Number of snoops hitting in the snoop filter with multiple (>1) holders of the requested data.
system.membus.snoop_filter.hit_single_requests       641229                       # Number of requests hitting in the snoop filter with a single holder of the requested data.
system.membus.snoop_filter.hit_single_snoops            0                       # Number of snoops hitting in the snoop filter with a single holder of the requested data.
system.membus.snoop_filter.tot_requests       1361124                       # Total number of requests made to the snoop filter.
system.membus.snoop_filter.tot_snoops               0                       # Total number of snoops made to the snoop filter.
system.switch_cpus0.cc_regfile_reads        204892314                       # number of cc regfile reads
system.switch_cpus0.cc_regfile_writes       100633190                       # number of cc regfile writes
system.switch_cpus0.committedInsts          250000000                       # Number of Instructions Simulated
system.switch_cpus0.committedOps            450592841                       # Number of Ops (including micro ops) Simulated
system.switch_cpus0.cpi                      0.400148                       # CPI: Cycles Per Instruction
system.switch_cpus0.cpi_total                0.400148                       # CPI: Total CPI of All Threads
system.switch_cpus0.fp_regfile_reads        146840397                       # number of floating regfile reads
system.switch_cpus0.fp_regfile_writes        84292361                       # number of floating regfile writes
system.switch_cpus0.idleCycles                  96784                       # Total number of cycles that the CPU has spent unscheduled due to idling
system.switch_cpus0.iew.branchMispredicts      1080638                       # Number of branch mispredicts detected at execute
system.switch_cpus0.iew.exec_branches        46342207                       # Number of branches executed
system.switch_cpus0.iew.exec_nop                    0                       # number of nop insts executed
system.switch_cpus0.iew.exec_rate            4.804174                       # Inst execution rate
system.switch_cpus0.iew.exec_refs           140953811                       # number of memory reference insts executed
system.switch_cpus0.iew.exec_stores          42843324                       # Number of stores executed
system.switch_cpus0.iew.exec_swp                    0                       # number of swp insts executed
system.switch_cpus0.iew.iewBlockCycles        6369238                       # Number of cycles IEW is blocking
system.switch_cpus0.iew.iewDispLoadInsts    102915816                       # Number of dispatched load instructions
system.switch_cpus0.iew.iewDispNonSpecInsts           10                       # Number of dispatched non-speculative instructions
system.switch_cpus0.iew.iewDispSquashedInsts          395                       # Number of squashed instructions skipped by dispatch
system.switch_cpus0.iew.iewDispStoreInsts     45576471                       # Number of dispatched store instructions
system.switch_cpus0.iew.iewDispatchedInsts    503164159                       # Number of instructions dispatched to IQ
system.switch_cpus0.iew.iewExecLoadInsts     98110487                       # Number of load instructions executed
system.switch_cpus0.iew.iewExecSquashedInsts      2942994                       # Number of squashed instructions skipped in execute
system.switch_cpus0.iew.iewExecutedInsts    480595441                       # Number of executed instructions
system.switch_cpus0.iew.iewIQFullEvents         10977                       # Number of times the IQ has become full, causing a stall
system.switch_cpus0.iew.iewIdleCycles               0                       # Number of cycles IEW is idle
system.switch_cpus0.iew.iewLSQFullEvents       175886                       # Number of times the LSQ has become full, causing a stall
system.switch_cpus0.iew.iewSquashCycles        985237                       # Number of cycles IEW is squashing
system.switch_cpus0.iew.iewUnblockCycles       190778                       # Number of cycles IEW is unblocking
system.switch_cpus0.iew.memOrderViolationEvents        18441                       # Number of memory order violations
system.switch_cpus0.iew.predictedNotTakenIncorrect       699841                       # Number of branches that were predicted not taken incorrectly
system.switch_cpus0.iew.predictedTakenIncorrect       380797                       # Number of branches that were predicted taken incorrectly
system.switch_cpus0.iew.wb_consumers        628383937                       # num instructions consuming a value
system.switch_cpus0.iew.wb_count            478841330                       # cumulative count of insts written-back
system.switch_cpus0.iew.wb_fanout            0.567296                       # average fanout of values written-back
system.switch_cpus0.iew.wb_producers        356479737                       # num instructions producing a value
system.switch_cpus0.iew.wb_rate              4.786640                       # insts written-back per cycle
system.switch_cpus0.iew.wb_sent             480078247                       # cumulative count of insts sent to commit
system.switch_cpus0.int_regfile_reads       665312720                       # number of integer regfile reads
system.switch_cpus0.int_regfile_writes      299891707                       # number of integer regfile writes
system.switch_cpus0.ipc                      2.499074                       # IPC: Instructions Per Cycle
system.switch_cpus0.ipc_total                2.499074                       # IPC: Total IPC of All Threads
system.switch_cpus0.iq.FU_type_0::No_OpClass      2593431      0.54%      0.54% # Type of FU issued
system.switch_cpus0.iq.FU_type_0::IntAlu    289864016     59.95%     60.48% # Type of FU issued
system.switch_cpus0.iq.FU_type_0::IntMult       996933      0.21%     60.69% # Type of FU issued
system.switch_cpus0.iq.FU_type_0::IntDiv            0      0.00%     60.69% # Type of FU issued
system.switch_cpus0.iq.FU_type_0::FloatAdd      1282810      0.27%     60.95% # Type of FU issued
system.switch_cpus0.iq.FU_type_0::FloatCmp            0      0.00%     60.95% # Type of FU issued
system.switch_cpus0.iq.FU_type_0::FloatCvt            0      0.00%     60.95% # Type of FU issued
system.switch_cpus0.iq.FU_type_0::FloatMult            0      0.00%     60.95% # Type of FU issued
system.switch_cpus0.iq.FU_type_0::FloatMultAcc            0      0.00%     60.95% # Type of FU issued
system.switch_cpus0.iq.FU_type_0::FloatDiv            0      0.00%     60.95% # Type of FU issued
system.switch_cpus0.iq.FU_type_0::FloatMisc            0      0.00%     60.95% # Type of FU issued
system.switch_cpus0.iq.FU_type_0::FloatSqrt            0      0.00%     60.95% # Type of FU issued
system.switch_cpus0.iq.FU_type_0::SimdAdd            0      0.00%     60.95% # Type of FU issued
system.switch_cpus0.iq.FU_type_0::SimdAddAcc            0      0.00%     60.95% # Type of FU issued
system.switch_cpus0.iq.FU_type_0::SimdAlu      3080882      0.64%     61.59% # Type of FU issued
system.switch_cpus0.iq.FU_type_0::SimdCmp            0      0.00%     61.59% # Type of FU issued
system.switch_cpus0.iq.FU_type_0::SimdCvt            0      0.00%     61.59% # Type of FU issued
system.switch_cpus0.iq.FU_type_0::SimdMisc       203100      0.04%     61.63% # Type of FU issued
system.switch_cpus0.iq.FU_type_0::SimdMult            0      0.00%     61.63% # Type of FU issued
system.switch_cpus0.iq.FU_type_0::SimdMultAcc            0      0.00%     61.63% # Type of FU issued
system.switch_cpus0.iq.FU_type_0::SimdShift            0      0.00%     61.63% # Type of FU issued
system.switch_cpus0.iq.FU_type_0::SimdShiftAcc            0      0.00%     61.63% # Type of FU issued
system.switch_cpus0.iq.FU_type_0::SimdDiv            0      0.00%     61.63% # Type of FU issued
system.switch_cpus0.iq.FU_type_0::SimdSqrt            0      0.00%     61.63% # Type of FU issued
system.switch_cpus0.iq.FU_type_0::SimdFloatAdd     17405362      3.60%     65.23% # Type of FU issued
system.switch_cpus0.iq.FU_type_0::SimdFloatAlu            0      0.00%     65.23% # Type of FU issued
system.switch_cpus0.iq.FU_type_0::SimdFloatCmp        59472      0.01%     65.25% # Type of FU issued
system.switch_cpus0.iq.FU_type_0::SimdFloatCvt      7601307      1.57%     66.82% # Type of FU issued
system.switch_cpus0.iq.FU_type_0::SimdFloatDiv       597651      0.12%     66.94% # Type of FU issued
system.switch_cpus0.iq.FU_type_0::SimdFloatMisc            0      0.00%     66.94% # Type of FU issued
system.switch_cpus0.iq.FU_type_0::SimdFloatMult     17298080      3.58%     70.52% # Type of FU issued
system.switch_cpus0.iq.FU_type_0::SimdFloatMultAcc            0      0.00%     70.52% # Type of FU issued
system.switch_cpus0.iq.FU_type_0::SimdFloatSqrt        42879      0.01%     70.53% # Type of FU issued
system.switch_cpus0.iq.FU_type_0::SimdReduceAdd            0      0.00%     70.53% # Type of FU issued
system.switch_cpus0.iq.FU_type_0::SimdReduceAlu            0      0.00%     70.53% # Type of FU issued
system.switch_cpus0.iq.FU_type_0::SimdReduceCmp            0      0.00%     70.53% # Type of FU issued
system.switch_cpus0.iq.FU_type_0::SimdFloatReduceAdd            0      0.00%     70.53% # Type of FU issued
system.switch_cpus0.iq.FU_type_0::SimdFloatReduceCmp            0      0.00%     70.53% # Type of FU issued
system.switch_cpus0.iq.FU_type_0::SimdAes            0      0.00%     70.53% # Type of FU issued
system.switch_cpus0.iq.FU_type_0::SimdAesMix            0      0.00%     70.53% # Type of FU issued
system.switch_cpus0.iq.FU_type_0::SimdSha1Hash            0      0.00%     70.53% # Type of FU issued
system.switch_cpus0.iq.FU_type_0::SimdSha1Hash2            0      0.00%     70.53% # Type of FU issued
system.switch_cpus0.iq.FU_type_0::SimdSha256Hash            0      0.00%     70.53% # Type of FU issued
system.switch_cpus0.iq.FU_type_0::SimdSha256Hash2            0      0.00%     70.53% # Type of FU issued
system.switch_cpus0.iq.FU_type_0::SimdShaSigma2            0      0.00%     70.53% # Type of FU issued
system.switch_cpus0.iq.FU_type_0::SimdShaSigma3            0      0.00%     70.53% # Type of FU issued
system.switch_cpus0.iq.FU_type_0::SimdPredAlu            0      0.00%     70.53% # Type of FU issued
system.switch_cpus0.iq.FU_type_0::MemRead     61562311     12.73%     83.26% # Type of FU issued
system.switch_cpus0.iq.FU_type_0::MemWrite     36567965      7.56%     90.82% # Type of FU issued
system.switch_cpus0.iq.FU_type_0::FloatMemRead     37759141      7.81%     98.63% # Type of FU issued
system.switch_cpus0.iq.FU_type_0::FloatMemWrite      6623098      1.37%    100.00% # Type of FU issued
system.switch_cpus0.iq.FU_type_0::IprAccess            0      0.00%    100.00% # Type of FU issued
system.switch_cpus0.iq.FU_type_0::InstPrefetch            0      0.00%    100.00% # Type of FU issued
system.switch_cpus0.iq.FU_type_0::total     483538438                       # Type of FU issued
system.switch_cpus0.iq.fp_alu_accesses      103479186                       # Number of floating point alu accesses
system.switch_cpus0.iq.fp_inst_queue_reads    201949856                       # Number of floating instruction queue reads
system.switch_cpus0.iq.fp_inst_queue_wakeup_accesses     97035695                       # Number of floating instruction queue wakeup accesses
system.switch_cpus0.iq.fp_inst_queue_writes    108787467                       # Number of floating instruction queue writes
system.switch_cpus0.iq.fu_busy_cnt           13850051                       # FU busy when requested
system.switch_cpus0.iq.fu_busy_rate          0.028643                       # FU busy rate (busy events/executed inst)
system.switch_cpus0.iq.fu_full::No_OpClass            0      0.00%      0.00% # attempts to use FU when none available
system.switch_cpus0.iq.fu_full::IntAlu        4053813     29.27%     29.27% # attempts to use FU when none available
system.switch_cpus0.iq.fu_full::IntMult             0      0.00%     29.27% # attempts to use FU when none available
system.switch_cpus0.iq.fu_full::IntDiv              0      0.00%     29.27% # attempts to use FU when none available
system.switch_cpus0.iq.fu_full::FloatAdd        10047      0.07%     29.34% # attempts to use FU when none available
system.switch_cpus0.iq.fu_full::FloatCmp            0      0.00%     29.34% # attempts to use FU when none available
system.switch_cpus0.iq.fu_full::FloatCvt            0      0.00%     29.34% # attempts to use FU when none available
system.switch_cpus0.iq.fu_full::FloatMult            0      0.00%     29.34% # attempts to use FU when none available
system.switch_cpus0.iq.fu_full::FloatMultAcc            0      0.00%     29.34% # attempts to use FU when none available
system.switch_cpus0.iq.fu_full::FloatDiv            0      0.00%     29.34% # attempts to use FU when none available
system.switch_cpus0.iq.fu_full::FloatMisc            0      0.00%     29.34% # attempts to use FU when none available
system.switch_cpus0.iq.fu_full::FloatSqrt            0      0.00%     29.34% # attempts to use FU when none available
system.switch_cpus0.iq.fu_full::SimdAdd             0      0.00%     29.34% # attempts to use FU when none available
system.switch_cpus0.iq.fu_full::SimdAddAcc            0      0.00%     29.34% # attempts to use FU when none available
system.switch_cpus0.iq.fu_full::SimdAlu        206605      1.49%     30.83% # attempts to use FU when none available
system.switch_cpus0.iq.fu_full::SimdCmp             0      0.00%     30.83% # attempts to use FU when none available
system.switch_cpus0.iq.fu_full::SimdCvt             0      0.00%     30.83% # attempts to use FU when none available
system.switch_cpus0.iq.fu_full::SimdMisc            9      0.00%     30.83% # attempts to use FU when none available
system.switch_cpus0.iq.fu_full::SimdMult            0      0.00%     30.83% # attempts to use FU when none available
system.switch_cpus0.iq.fu_full::SimdMultAcc            0      0.00%     30.83% # attempts to use FU when none available
system.switch_cpus0.iq.fu_full::SimdShift            0      0.00%     30.83% # attempts to use FU when none available
system.switch_cpus0.iq.fu_full::SimdShiftAcc            0      0.00%     30.83% # attempts to use FU when none available
system.switch_cpus0.iq.fu_full::SimdDiv             0      0.00%     30.83% # attempts to use FU when none available
system.switch_cpus0.iq.fu_full::SimdSqrt            0      0.00%     30.83% # attempts to use FU when none available
system.switch_cpus0.iq.fu_full::SimdFloatAdd       499345      3.61%     34.44% # attempts to use FU when none available
system.switch_cpus0.iq.fu_full::SimdFloatAlu            0      0.00%     34.44% # attempts to use FU when none available
system.switch_cpus0.iq.fu_full::SimdFloatCmp            0      0.00%     34.44% # attempts to use FU when none available
system.switch_cpus0.iq.fu_full::SimdFloatCvt        51396      0.37%     34.81% # attempts to use FU when none available
system.switch_cpus0.iq.fu_full::SimdFloatDiv            0      0.00%     34.81% # attempts to use FU when none available
system.switch_cpus0.iq.fu_full::SimdFloatMisc            0      0.00%     34.81% # attempts to use FU when none available
system.switch_cpus0.iq.fu_full::SimdFloatMult       338721      2.45%     37.26% # attempts to use FU when none available
system.switch_cpus0.iq.fu_full::SimdFloatMultAcc            0      0.00%     37.26% # attempts to use FU when none available
system.switch_cpus0.iq.fu_full::SimdFloatSqrt            0      0.00%     37.26% # attempts to use FU when none available
system.switch_cpus0.iq.fu_full::SimdReduceAdd            0      0.00%     37.26% # attempts to use FU when none available
system.switch_cpus0.iq.fu_full::SimdReduceAlu            0      0.00%     37.26% # attempts to use FU when none available
system.switch_cpus0.iq.fu_full::SimdReduceCmp            0      0.00%     37.26% # attempts to use FU when none available
system.switch_cpus0.iq.fu_full::SimdFloatReduceAdd            0      0.00%     37.26% # attempts to use FU when none available
system.switch_cpus0.iq.fu_full::SimdFloatReduceCmp            0      0.00%     37.26% # attempts to use FU when none available
system.switch_cpus0.iq.fu_full::SimdAes             0      0.00%     37.26% # attempts to use FU when none available
system.switch_cpus0.iq.fu_full::SimdAesMix            0      0.00%     37.26% # attempts to use FU when none available
system.switch_cpus0.iq.fu_full::SimdSha1Hash            0      0.00%     37.26% # attempts to use FU when none available
system.switch_cpus0.iq.fu_full::SimdSha1Hash2            0      0.00%     37.26% # attempts to use FU when none available
system.switch_cpus0.iq.fu_full::SimdSha256Hash            0      0.00%     37.26% # attempts to use FU when none available
system.switch_cpus0.iq.fu_full::SimdSha256Hash2            0      0.00%     37.26% # attempts to use FU when none available
system.switch_cpus0.iq.fu_full::SimdShaSigma2            0      0.00%     37.26% # attempts to use FU when none available
system.switch_cpus0.iq.fu_full::SimdShaSigma3            0      0.00%     37.26% # attempts to use FU when none available
system.switch_cpus0.iq.fu_full::SimdPredAlu            0      0.00%     37.26% # attempts to use FU when none available
system.switch_cpus0.iq.fu_full::MemRead       3353368     24.21%     61.47% # attempts to use FU when none available
system.switch_cpus0.iq.fu_full::MemWrite      1159066      8.37%     69.84% # attempts to use FU when none available
system.switch_cpus0.iq.fu_full::FloatMemRead      3614632     26.10%     95.93% # attempts to use FU when none available
system.switch_cpus0.iq.fu_full::FloatMemWrite       563049      4.07%    100.00% # attempts to use FU when none available
system.switch_cpus0.iq.fu_full::IprAccess            0      0.00%    100.00% # attempts to use FU when none available
system.switch_cpus0.iq.fu_full::InstPrefetch            0      0.00%    100.00% # attempts to use FU when none available
system.switch_cpus0.iq.int_alu_accesses     391315872                       # Number of integer alu accesses
system.switch_cpus0.iq.int_inst_queue_reads    879728325                       # Number of integer instruction queue reads
system.switch_cpus0.iq.int_inst_queue_wakeup_accesses    381805635                       # Number of integer instruction queue wakeup accesses
system.switch_cpus0.iq.int_inst_queue_writes    446966180                       # Number of integer instruction queue writes
system.switch_cpus0.iq.iqInstsAdded         503164143                       # Number of instructions added to the IQ (excludes non-spec)
system.switch_cpus0.iq.iqInstsIssued        483538438                       # Number of instructions issued
system.switch_cpus0.iq.iqNonSpecInstsAdded           16                       # Number of non-speculative instructions added to the IQ
system.switch_cpus0.iq.iqSquashedInstsExamined     52571290                       # Number of squashed instructions iterated over during squash; mainly for profiling
system.switch_cpus0.iq.iqSquashedInstsIssued       810989                       # Number of squashed instructions issued
system.switch_cpus0.iq.iqSquashedNonSpecRemoved           12                       # Number of squashed non-spec instructions that were removed
system.switch_cpus0.iq.iqSquashedOperandsExamined     75283526                       # Number of squashed operands that are examined and possibly removed from graph
system.switch_cpus0.iq.issued_per_cycle::samples     99940268                       # Number of insts issued each cycle
system.switch_cpus0.iq.issued_per_cycle::mean     4.838274                       # Number of insts issued each cycle
system.switch_cpus0.iq.issued_per_cycle::stdev     2.689314                       # Number of insts issued each cycle
system.switch_cpus0.iq.issued_per_cycle::underflows            0      0.00%      0.00% # Number of insts issued each cycle
system.switch_cpus0.iq.issued_per_cycle::0     13950456     13.96%     13.96% # Number of insts issued each cycle
system.switch_cpus0.iq.issued_per_cycle::1      2661563      2.66%     16.62% # Number of insts issued each cycle
system.switch_cpus0.iq.issued_per_cycle::2      5165389      5.17%     21.79% # Number of insts issued each cycle
system.switch_cpus0.iq.issued_per_cycle::3      6927572      6.93%     28.72% # Number of insts issued each cycle
system.switch_cpus0.iq.issued_per_cycle::4      9600574      9.61%     38.33% # Number of insts issued each cycle
system.switch_cpus0.iq.issued_per_cycle::5     12322680     12.33%     50.66% # Number of insts issued each cycle
system.switch_cpus0.iq.issued_per_cycle::6     15105793     15.11%     65.77% # Number of insts issued each cycle
system.switch_cpus0.iq.issued_per_cycle::7     14537001     14.55%     80.32% # Number of insts issued each cycle
system.switch_cpus0.iq.issued_per_cycle::8     19669240     19.68%    100.00% # Number of insts issued each cycle
system.switch_cpus0.iq.issued_per_cycle::overflows            0      0.00%    100.00% # Number of insts issued each cycle
system.switch_cpus0.iq.issued_per_cycle::min_value            0                       # Number of insts issued each cycle
system.switch_cpus0.iq.issued_per_cycle::max_value            8                       # Number of insts issued each cycle
system.switch_cpus0.iq.issued_per_cycle::total     99940268                       # Number of insts issued each cycle
system.switch_cpus0.iq.rate                  4.833593                       # Inst issue rate
system.switch_cpus0.iq.vec_alu_accesses             0                       # Number of vector alu accesses
system.switch_cpus0.iq.vec_inst_queue_reads            0                       # Number of vector instruction queue reads
system.switch_cpus0.iq.vec_inst_queue_wakeup_accesses            0                       # Number of vector instruction queue wakeup accesses
system.switch_cpus0.iq.vec_inst_queue_writes            0                       # Number of vector instruction queue writes
system.switch_cpus0.memDep0.conflictingLoads      5435496                       # Number of conflicting loads.
system.switch_cpus0.memDep0.conflictingStores      2520186                       # Number of conflicting stores.
system.switch_cpus0.memDep0.insertedLoads    102915816                       # Number of loads inserted to the mem dependence unit.
system.switch_cpus0.memDep0.insertedStores     45576471                       # Number of stores inserted to the mem dependence unit.
system.switch_cpus0.misc_regfile_reads      236713701                       # number of misc regfile reads
system.switch_cpus0.misc_regfile_writes             9                       # number of misc regfile writes
system.switch_cpus0.numCycles               100037052                       # number of cpu cycles simulated
system.switch_cpus0.numWorkItemsCompleted            0                       # number of work items this cpu completed
system.switch_cpus0.numWorkItemsStarted             0                       # number of work items this cpu started
system.switch_cpus0.timesIdled                    385                       # Number of times that the entire CPU went into an idle state and unscheduled itself
system.switch_cpus1.cc_regfile_reads         50336904                       # number of cc regfile reads
system.switch_cpus1.cc_regfile_writes        40607121                       # number of cc regfile writes
system.switch_cpus1.committedInsts           99193658                       # Number of Instructions Simulated
system.switch_cpus1.committedOps            158404390                       # Number of Ops (including micro ops) Simulated
system.switch_cpus1.cpi                      1.008502                       # CPI: Cycles Per Instruction
system.switch_cpus1.cpi_total                1.008502                       # CPI: Total CPI of All Threads
system.switch_cpus1.fp_regfile_reads        121596649                       # number of floating regfile reads
system.switch_cpus1.fp_regfile_writes        61120379                       # number of floating regfile writes
system.switch_cpus1.idleCycles                  44942                       # Total number of cycles that the CPU has spent unscheduled due to idling
system.switch_cpus1.iew.branchMispredicts         9368                       # Number of branch mispredicts detected at execute
system.switch_cpus1.iew.exec_branches        11218959                       # Number of branches executed
system.switch_cpus1.iew.exec_nop                    0                       # number of nop insts executed
system.switch_cpus1.iew.exec_rate            1.584756                       # Inst execution rate
system.switch_cpus1.iew.exec_refs            36627502                       # number of memory reference insts executed
system.switch_cpus1.iew.exec_stores          10464247                       # Number of stores executed
system.switch_cpus1.iew.exec_swp                    0                       # number of swp insts executed
system.switch_cpus1.iew.iewBlockCycles       19876032                       # Number of cycles IEW is blocking
system.switch_cpus1.iew.iewDispLoadInsts     26182788                       # Number of dispatched load instructions
system.switch_cpus1.iew.iewDispNonSpecInsts            3                       # Number of dispatched non-speculative instructions
system.switch_cpus1.iew.iewDispSquashedInsts          462                       # Number of squashed instructions skipped by dispatch
system.switch_cpus1.iew.iewDispStoreInsts     10482800                       # Number of dispatched store instructions
system.switch_cpus1.iew.iewDispatchedInsts    158663606                       # Number of instructions dispatched to IQ
system.switch_cpus1.iew.iewExecLoadInsts     26163255                       # Number of load instructions executed
system.switch_cpus1.iew.iewExecSquashedInsts        22545                       # Number of squashed instructions skipped in execute
system.switch_cpus1.iew.iewExecutedInsts    158534359                       # Number of executed instructions
system.switch_cpus1.iew.iewIQFullEvents         88480                       # Number of times the IQ has become full, causing a stall
system.switch_cpus1.iew.iewIdleCycles               0                       # Number of cycles IEW is idle
system.switch_cpus1.iew.iewLSQFullEvents     11051859                       # Number of times the LSQ has become full, causing a stall
system.switch_cpus1.iew.iewSquashCycles          9895                       # Number of cycles IEW is squashing
system.switch_cpus1.iew.iewUnblockCycles     11209198                       # Number of cycles IEW is unblocking
system.switch_cpus1.iew.memOrderViolationEvents          658                       # Number of memory order violations
system.switch_cpus1.iew.predictedNotTakenIncorrect         1791                       # Number of branches that were predicted not taken incorrectly
system.switch_cpus1.iew.predictedTakenIncorrect         7577                       # Number of branches that were predicted taken incorrectly
system.switch_cpus1.iew.wb_consumers        196420269                       # num instructions consuming a value
system.switch_cpus1.iew.wb_count            158509785                       # cumulative count of insts written-back
system.switch_cpus1.iew.wb_fanout            0.607121                       # average fanout of values written-back
system.switch_cpus1.iew.wb_producers        119250909                       # num instructions producing a value
system.switch_cpus1.iew.wb_rate              1.584511                       # insts written-back per cycle
system.switch_cpus1.iew.wb_sent             158520837                       # cumulative count of insts sent to commit
system.switch_cpus1.int_regfile_reads       154900694                       # number of integer regfile reads
system.switch_cpus1.int_regfile_writes       73204887                       # number of integer regfile writes
system.switch_cpus1.ipc                      0.991569                       # IPC: Instructions Per Cycle
system.switch_cpus1.ipc_total                0.991569                       # IPC: Total IPC of All Threads
system.switch_cpus1.iq.FU_type_0::No_OpClass         7705      0.00%      0.00% # Type of FU issued
system.switch_cpus1.iq.FU_type_0::IntAlu     85681999     54.04%     54.04% # Type of FU issued
system.switch_cpus1.iq.FU_type_0::IntMult         2918      0.00%     54.05% # Type of FU issued
system.switch_cpus1.iq.FU_type_0::IntDiv            0      0.00%     54.05% # Type of FU issued
system.switch_cpus1.iq.FU_type_0::FloatAdd      2949516      1.86%     55.91% # Type of FU issued
system.switch_cpus1.iq.FU_type_0::FloatCmp            0      0.00%     55.91% # Type of FU issued
system.switch_cpus1.iq.FU_type_0::FloatCvt            0      0.00%     55.91% # Type of FU issued
system.switch_cpus1.iq.FU_type_0::FloatMult            0      0.00%     55.91% # Type of FU issued
system.switch_cpus1.iq.FU_type_0::FloatMultAcc            0      0.00%     55.91% # Type of FU issued
system.switch_cpus1.iq.FU_type_0::FloatDiv            0      0.00%     55.91% # Type of FU issued
system.switch_cpus1.iq.FU_type_0::FloatMisc            0      0.00%     55.91% # Type of FU issued
system.switch_cpus1.iq.FU_type_0::FloatSqrt            0      0.00%     55.91% # Type of FU issued
system.switch_cpus1.iq.FU_type_0::SimdAdd            0      0.00%     55.91% # Type of FU issued
system.switch_cpus1.iq.FU_type_0::SimdAddAcc            0      0.00%     55.91% # Type of FU issued
system.switch_cpus1.iq.FU_type_0::SimdAlu      3510520      2.21%     58.12% # Type of FU issued
system.switch_cpus1.iq.FU_type_0::SimdCmp            0      0.00%     58.12% # Type of FU issued
system.switch_cpus1.iq.FU_type_0::SimdCvt            0      0.00%     58.12% # Type of FU issued
system.switch_cpus1.iq.FU_type_0::SimdMisc      1771827      1.12%     59.24% # Type of FU issued
system.switch_cpus1.iq.FU_type_0::SimdMult            0      0.00%     59.24% # Type of FU issued
system.switch_cpus1.iq.FU_type_0::SimdMultAcc            0      0.00%     59.24% # Type of FU issued
system.switch_cpus1.iq.FU_type_0::SimdShift            0      0.00%     59.24% # Type of FU issued
system.switch_cpus1.iq.FU_type_0::SimdShiftAcc            0      0.00%     59.24% # Type of FU issued
system.switch_cpus1.iq.FU_type_0::SimdDiv            0      0.00%     59.24% # Type of FU issued
system.switch_cpus1.iq.FU_type_0::SimdSqrt            0      0.00%     59.24% # Type of FU issued
system.switch_cpus1.iq.FU_type_0::SimdFloatAdd     11291647      7.12%     66.36% # Type of FU issued
system.switch_cpus1.iq.FU_type_0::SimdFloatAlu            0      0.00%     66.36% # Type of FU issued
system.switch_cpus1.iq.FU_type_0::SimdFloatCmp       376832      0.24%     66.60% # Type of FU issued
system.switch_cpus1.iq.FU_type_0::SimdFloatCvt      2506754      1.58%     68.18% # Type of FU issued
system.switch_cpus1.iq.FU_type_0::SimdFloatDiv      2407641      1.52%     69.70% # Type of FU issued
system.switch_cpus1.iq.FU_type_0::SimdFloatMisc            0      0.00%     69.70% # Type of FU issued
system.switch_cpus1.iq.FU_type_0::SimdFloatMult     11000651      6.94%     76.63% # Type of FU issued
system.switch_cpus1.iq.FU_type_0::SimdFloatMultAcc            0      0.00%     76.63% # Type of FU issued
system.switch_cpus1.iq.FU_type_0::SimdFloatSqrt       409602      0.26%     76.89% # Type of FU issued
system.switch_cpus1.iq.FU_type_0::SimdReduceAdd            0      0.00%     76.89% # Type of FU issued
system.switch_cpus1.iq.FU_type_0::SimdReduceAlu            0      0.00%     76.89% # Type of FU issued
system.switch_cpus1.iq.FU_type_0::SimdReduceCmp            0      0.00%     76.89% # Type of FU issued
system.switch_cpus1.iq.FU_type_0::SimdFloatReduceAdd            0      0.00%     76.89% # Type of FU issued
system.switch_cpus1.iq.FU_type_0::SimdFloatReduceCmp            0      0.00%     76.89% # Type of FU issued
[...]
system.switch_cpus3.commit.numCommittedDist::0     17263472     18.40%     18.40% # Number of insts commited each cycle
system.switch_cpus3.commit.numCommittedDist::1      8980619      9.57%     27.98% # Number of insts commited each cycle
system.switch_cpus3.commit.numCommittedDist::2     12757168     13.60%     41.58% # Number of insts commited each cycle
system.switch_cpus3.commit.numCommittedDist::3      5828104      6.21%     47.79% # Number of insts commited each cycle
system.switch_cpus3.commit.numCommittedDist::4      9833593     10.48%     58.28% # Number of insts commited each cycle
system.switch_cpus3.commit.numCommittedDist::5      3726741      3.97%     62.25% # Number of insts commited each cycle
system.switch_cpus3.commit.numCommittedDist::6      1868646      1.99%     64.24% # Number of insts commited each cycle
system.switch_cpus3.commit.numCommittedDist::7       690367      0.74%     64.98% # Number of insts commited each cycle
system.switch_cpus3.commit.numCommittedDist::8     32852530     35.02%    100.00% # Number of insts commited each cycle
system.switch_cpus3.commit.numCommittedDist::overflows            0      0.00%    100.00% # Number of insts commited each cycle
system.switch_cpus3.commit.numCommittedDist::min_value            0                       # Number of insts commited each cycle
system.switch_cpus3.commit.numCommittedDist::max_value            8                       # Number of insts commited each cycle
system.switch_cpus3.commit.numCommittedDist::total     93801240                       # Number of insts commited each cycle
system.switch_cpus3.commit.instsCommitted    208316307                       # Number of instructions committed
system.switch_cpus3.commit.opsCommitted     388812029                       # Number of ops (including micro ops) committed
system.switch_cpus3.commit.memRefs           62843876                       # Number of memory references committed
system.switch_cpus3.commit.loads             53680386                       # Number of loads committed
system.switch_cpus3.commit.amos                     0                       # Number of atomic instructions committed
system.switch_cpus3.commit.membars                  0                       # Number of memory barriers committed
system.switch_cpus3.commit.branches          31611556                       # Number of branches committed
system.switch_cpus3.commit.vector                   0                       # Number of committed Vector instructions.
system.switch_cpus3.commit.floating          10139070                       # Number of committed floating point instructions.
system.switch_cpus3.commit.integer          382403369                       # Number of committed integer instructions.
system.switch_cpus3.commit.functionCalls       317343                       # Number of function calls committed.
system.switch_cpus3.commit.committedInstType_0::No_OpClass      1678182      0.43%      0.43% # Class of committed instruction
system.switch_cpus3.commit.committedInstType_0::IntAlu    302656254     77.84%     78.27% # Class of committed instruction
system.switch_cpus3.commit.committedInstType_0::IntMult     18220537      4.69%     82.96% # Class of committed instruction
system.switch_cpus3.commit.committedInstType_0::IntDiv        31815      0.01%     82.97% # Class of committed instruction
system.switch_cpus3.commit.committedInstType_0::FloatAdd       405142      0.10%     83.07% # Class of committed instruction
system.switch_cpus3.commit.committedInstType_0::FloatCmp            0      0.00%     83.07% # Class of committed instruction
system.switch_cpus3.commit.committedInstType_0::FloatCvt            0      0.00%     83.07% # Class of committed instruction
system.switch_cpus3.commit.committedInstType_0::FloatMult            0      0.00%     83.07% # Class of committed instruction
system.switch_cpus3.commit.committedInstType_0::FloatMultAcc            0      0.00%     83.07% # Class of committed instruction
system.switch_cpus3.commit.committedInstType_0::FloatDiv            0      0.00%     83.07% # Class of committed instruction
system.switch_cpus3.commit.committedInstType_0::FloatMisc            0      0.00%     83.07% # Class of committed instruction
system.switch_cpus3.commit.committedInstType_0::FloatSqrt            0      0.00%     83.07% # Class of committed instruction
system.switch_cpus3.commit.committedInstType_0::SimdAdd            0      0.00%     83.07% # Class of committed instruction
system.switch_cpus3.commit.committedInstType_0::SimdAddAcc            0      0.00%     83.07% # Class of committed instruction
system.switch_cpus3.commit.committedInstType_0::SimdAlu       387294      0.10%     83.17% # Class of committed instruction
system.switch_cpus3.commit.committedInstType_0::SimdCmp            0      0.00%     83.17% # Class of committed instruction
system.switch_cpus3.commit.committedInstType_0::SimdCvt            0      0.00%     83.17% # Class of committed instruction
system.switch_cpus3.commit.committedInstType_0::SimdMisc       585703      0.15%     83.32% # Class of committed instruction
system.switch_cpus3.commit.committedInstType_0::SimdMult            0      0.00%     83.32% # Class of committed instruction
system.switch_cpus3.commit.committedInstType_0::SimdMultAcc            0      0.00%     83.32% # Class of committed instruction
system.switch_cpus3.commit.committedInstType_0::SimdShift            0      0.00%     83.32% # Class of committed instruction
system.switch_cpus3.commit.committedInstType_0::SimdShiftAcc            0      0.00%     83.32% # Class of committed instruction
system.switch_cpus3.commit.committedInstType_0::SimdDiv            0      0.00%     83.32% # Class of committed instruction
system.switch_cpus3.commit.committedInstType_0::SimdSqrt            0      0.00%     83.32% # Class of committed instruction
system.switch_cpus3.commit.committedInstType_0::SimdFloatAdd       697954      0.18%     83.50% # Class of committed instruction
system.switch_cpus3.commit.committedInstType_0::SimdFloatAlu            0      0.00%     83.50% # Class of committed instruction
system.switch_cpus3.commit.committedInstType_0::SimdFloatCmp            0      0.00%     83.50% # Class of committed instruction
system.switch_cpus3.commit.committedInstType_0::SimdFloatCvt       371790      0.10%     83.60% # Class of committed instruction
system.switch_cpus3.commit.committedInstType_0::SimdFloatDiv       176582      0.05%     83.64% # Class of committed instruction
system.switch_cpus3.commit.committedInstType_0::SimdFloatMisc            0      0.00%     83.64% # Class of committed instruction
system.switch_cpus3.commit.committedInstType_0::SimdFloatMult       756451      0.19%     83.84% # Class of committed instruction
system.switch_cpus3.commit.committedInstType_0::SimdFloatMultAcc            0      0.00%     83.84% # Class of committed instruction
system.switch_cpus3.commit.committedInstType_0::SimdFloatSqrt          449      0.00%     83.84% # Class of committed instruction
system.switch_cpus3.commit.committedInstType_0::SimdReduceAdd            0      0.00%     83.84% # Class of committed instruction
system.switch_cpus3.commit.committedInstType_0::SimdReduceAlu            0      0.00%     83.84% # Class of committed instruction
system.switch_cpus3.commit.committedInstType_0::SimdReduceCmp            0      0.00%     83.84% # Class of committed instruction
system.switch_cpus3.commit.committedInstType_0::SimdFloatReduceAdd            0      0.00%     83.84% # Class of committed instruction
system.switch_cpus3.commit.committedInstType_0::SimdFloatReduceCmp            0      0.00%     83.84% # Class of committed instruction
system.switch_cpus3.commit.committedInstType_0::SimdAes            0      0.00%     83.84% # Class of committed instruction
system.switch_cpus3.commit.committedInstType_0::SimdAesMix            0      0.00%     83.84% # Class of committed instruction
system.switch_cpus3.commit.committedInstType_0::SimdSha1Hash            0      0.00%     83.84% # Class of committed instruction
system.switch_cpus3.commit.committedInstType_0::SimdSha1Hash2            0      0.00%     83.84% # Class of committed instruction
system.switch_cpus3.commit.committedInstType_0::SimdSha256Hash            0      0.00%     83.84% # Class of committed instruction
system.switch_cpus3.commit.committedInstType_0::SimdSha256Hash2            0      0.00%     83.84% # Class of committed instruction
system.switch_cpus3.commit.committedInstType_0::SimdShaSigma2            0      0.00%     83.84% # Class of committed instruction
system.switch_cpus3.commit.committedInstType_0::SimdShaSigma3            0      0.00%     83.84% # Class of committed instruction
system.switch_cpus3.commit.committedInstType_0::SimdPredAlu            0      0.00%     83.84% # Class of committed instruction
system.switch_cpus3.commit.committedInstType_0::MemRead     51141659     13.15%     96.99% # Class of committed instruction
system.switch_cpus3.commit.committedInstType_0::MemWrite      5882094      1.51%     98.50% # Class of committed instruction
system.switch_cpus3.commit.committedInstType_0::FloatMemRead      2538727      0.65%     99.16% # Class of committed instruction
system.switch_cpus3.commit.committedInstType_0::FloatMemWrite      3281396      0.84%    100.00% # Class of committed instruction
system.switch_cpus3.commit.committedInstType_0::IprAccess            0      0.00%    100.00% # Class of committed instruction
system.switch_cpus3.commit.committedInstType_0::InstPrefetch            0      0.00%    100.00% # Class of committed instruction
system.switch_cpus3.commit.committedInstType_0::total    388812029                       # Class of committed instruction
system.switch_cpus3.commit.commitEligibleSamples     32852530                       # number cycles where commit BW limit reached
system.switch_cpus3.decode.idleCycles         5999267                       # Number of cycles decode is idle
system.switch_cpus3.decode.blockedCycles     17723528                       # Number of cycles decode is blocked
system.switch_cpus3.decode.runCycles         68725416                       # Number of cycles decode is running
system.switch_cpus3.decode.unblockCycles      5878470                       # Number of cycles decode is unblocking
system.switch_cpus3.decode.squashCycles       1664134                       # Number of cycles decode is squashing
system.switch_cpus3.decode.branchResolved     26389685                       # Number of times decode resolved a  branch
system.switch_cpus3.decode.branchMispred        88364                       # Number of times decode detected a branch misprediction
system.switch_cpus3.decode.decodedInsts     461052434                       # Number of instructions handled by decode
system.switch_cpus3.decode.squashedInsts       558009                       # Number of squashed instructions handled by decode
system.switch_cpus3.dtb.rdAccesses           57542926                       # TLB accesses on read requests
system.switch_cpus3.dtb.wrAccesses            9553856                       # TLB accesses on write requests
system.switch_cpus3.dtb.rdMisses                  137                       # TLB misses on read requests
system.switch_cpus3.dtb.wrMisses                  442                       # TLB misses on write requests
system.switch_cpus3.dtb.walker.power_state.pwrStateResidencyTicks::UNDEFINED 15684569425971                       # Cumulative time (in ticks) in various power states
system.switch_cpus3.fetch.icacheStallCycles      1216541                       # Number of cycles fetch is stalled on an Icache miss
system.switch_cpus3.fetch.insts             258975915                       # Number of instructions fetch has processed
system.switch_cpus3.fetch.branches           39712200                       # Number of branches that fetch encountered
system.switch_cpus3.fetch.predictedBranches     28129721                       # Number of branches that fetch has predicted taken
system.switch_cpus3.fetch.cycles             97024548                       # Number of cycles fetch has run and was not squashing or blocked
system.switch_cpus3.fetch.squashCycles        3499412                       # Number of cycles fetch has spent squashing
system.switch_cpus3.fetch.miscStallCycles            2                       # Number of cycles fetch has spent waiting on interrupts,or bad addresses, or out of MSHRs
system.switch_cpus3.fetch.pendingTrapStallCycles           21                       # Number of stall cycles due to pending traps
system.switch_cpus3.fetch.cacheLines         39779181                       # Number of cache lines fetched
system.switch_cpus3.fetch.icacheSquashes          159                       # Number of outstanding Icache misses that were squashed
system.switch_cpus3.fetch.nisnDist::samples     99990818                       # Number of instructions fetched each cycle (Total)
system.switch_cpus3.fetch.nisnDist::mean     4.803172                       # Number of instructions fetched each cycle (Total)
system.switch_cpus3.fetch.nisnDist::stdev     3.076548                       # Number of instructions fetched each cycle (Total)
system.switch_cpus3.fetch.nisnDist::underflows            0      0.00%      0.00% # Number of instructions fetched each cycle (Total)
system.switch_cpus3.fetch.nisnDist::0        15675338     15.68%     15.68% # Number of instructions fetched each cycle (Total)
system.switch_cpus3.fetch.nisnDist::1         1645740      1.65%     17.32% # Number of instructions fetched each cycle (Total)
system.switch_cpus3.fetch.nisnDist::2        15851361     15.85%     33.18% # Number of instructions fetched each cycle (Total)
system.switch_cpus3.fetch.nisnDist::3         1778425      1.78%     34.95% # Number of instructions fetched each cycle (Total)
system.switch_cpus3.fetch.nisnDist::4        12435792     12.44%     47.39% # Number of instructions fetched each cycle (Total)
system.switch_cpus3.fetch.nisnDist::5         6366687      6.37%     53.76% # Number of instructions fetched each cycle (Total)
system.switch_cpus3.fetch.nisnDist::6         1586033      1.59%     55.34% # Number of instructions fetched each cycle (Total)
system.switch_cpus3.fetch.nisnDist::7         6714938      6.72%     62.06% # Number of instructions fetched each cycle (Total)
system.switch_cpus3.fetch.nisnDist::8        37936504     37.94%    100.00% # Number of instructions fetched each cycle (Total)
system.switch_cpus3.fetch.nisnDist::overflows            0      0.00%    100.00% # Number of instructions fetched each cycle (Total)
system.switch_cpus3.fetch.nisnDist::min_value            0                       # Number of instructions fetched each cycle (Total)
system.switch_cpus3.fetch.nisnDist::max_value            8                       # Number of instructions fetched each cycle (Total)
system.switch_cpus3.fetch.nisnDist::total     99990818                       # Number of instructions fetched each cycle (Total)
system.switch_cpus3.fetch.branchRate         0.396975                       # Number of branch fetches per cycle
system.switch_cpus3.fetch.rate               2.588800                       # Number of inst fetches per cycle
system.switch_cpus3.itb.rdAccesses                  0                       # TLB accesses on read requests
system.switch_cpus3.itb.wrAccesses           39779184                       # TLB accesses on write requests
system.switch_cpus3.itb.rdMisses                    0                       # TLB misses on read requests
system.switch_cpus3.itb.wrMisses                   17                       # TLB misses on write requests
system.switch_cpus3.itb.walker.power_state.pwrStateResidencyTicks::UNDEFINED 15684569425971                       # Cumulative time (in ticks) in various power states
system.switch_cpus3.lsq0.forwLoads             787246                       # Number of loads that had data forwarded from stores
system.switch_cpus3.lsq0.squashedLoads        5451673                       # Number of loads squashed
system.switch_cpus3.lsq0.ignoredResponses         1024                       # Number of memory responses ignored because the instruction is squashed
system.switch_cpus3.lsq0.memOrderViolation        18076                       # Number of memory ordering violations
system.switch_cpus3.lsq0.squashedStores       1441690                       # Number of stores squashed
system.switch_cpus3.lsq0.rescheduledLoads            1                       # Number of loads that were rescheduled
system.switch_cpus3.lsq0.blockedByCache             0                       # Number of times an access to memory failed due to the cache being blocked
system.switch_cpus3.power_state.pwrStateResidencyTicks::OFF  33312348639                       # Cumulative time (in ticks) in various power states
system.switch_cpus3.rename.squashCycles       1664134                       # Number of cycles rename is squashing
system.switch_cpus3.rename.idleCycles         8842506                       # Number of cycles rename is idle
system.switch_cpus3.rename.blockCycles        7759324                       # Number of cycles rename is blocking
system.switch_cpus3.rename.serializeStallCycles            0                       # count of cycles rename stalledfor serializing inst
system.switch_cpus3.rename.runCycles         71198489                       # Number of cycles rename is running
system.switch_cpus3.rename.unblockCycles     10526362                       # Number of cycles rename is unblocking
system.switch_cpus3.rename.renamedInsts     449447457                       # Number of instructions processed by rename
system.switch_cpus3.rename.ROBFullEvents       185727                       # Number of times rename has blocked due to ROB full
system.switch_cpus3.rename.IQFullEvents       2019588                       # Number of times rename has blocked due to IQ full
system.switch_cpus3.rename.LQFullEvents        582755                       # Number of times rename has blocked due to LQ full
system.switch_cpus3.rename.SQFullEvents       6180975                       # Number of times rename has blocked due to SQ full
system.switch_cpus3.rename.renamedOperands    682293046                       # Number of destination operands rename has renamed
system.switch_cpus3.rename.lookups          985297800                       # Number of register rename lookups that rename has made
system.switch_cpus3.rename.intLookups       645181790                       # Number of integer rename lookups
system.switch_cpus3.rename.fpLookups         13669245                       # Number of floating rename lookups
system.switch_cpus3.rename.committedMaps    593377648                       # Number of HB maps that are committed
system.switch_cpus3.rename.undoneMaps        88915205                       # Number of HB maps that are undone due to squashing
system.switch_cpus3.rename.serializing              0                       # count of serializing insts renamed
system.switch_cpus3.rename.tempSerializing            0                       # count of temporary serializing insts renamed
system.switch_cpus3.rename.skidInsts         16110756                       # count of insts added to the skid buffer
system.switch_cpus3.rob.reads               491669594                       # The number of ROB reads
system.switch_cpus3.rob.writes              867647623                       # The number of ROB writes
system.switch_cpus3.thread0.numInsts        208316307                       # Number of Instructions committed
system.switch_cpus3.thread0.numOps          388812029                       # Number of Ops committed
system.switch_cpus3.thread0.numMemRefs              0                       # Number of Memory References
system.voltage_domain.voltage                       1                       # Voltage in Volts

---------- End Simulation Statistics   ----------
