Command line:
./runscript_pride.sh mix21 RFM1.BR1.4C 4 2017 --rh_defense --rh_mitigation=RFM --rh_rfm_per_trefi=1 --rh_rfm_blast_radius=1 --rh_rfm_maxacts_per_trefi=79
Global frequency set at 1000000000000 ticks per second
RFM details - rfm_act_threshold: 79, blast_radius: 1, delay_per_rfm: 175000 ps. sample_rate: 0.012500
RH Defense config: RFM, Bus Delay: 0, rfms_per_trefi: 1, rfm_act_threshold: 79, blast_radius: 1,rfm_delay_per_act: 45000 ps.
DRAM config: RowsPerBank: 65536, BanksPerRank: 32, RanksPerChannel: 1
warn: Sockets disabled, not accepting gdb connections
warn: CoherentXBar system.cpu0.mmucache.mmubus has no snooping ports attached!
warn: CoherentXBar system.cpu1.mmucache.mmubus has no snooping ports attached!
warn: CoherentXBar system.cpu2.mmucache.mmubus has no snooping ports attached!
warn: CoherentXBar system.cpu3.mmucache.mmubus has no snooping ports attached!
warn: Checkpoints for file descriptors currently do not work.
warn: Checkpoints for file descriptors currently do not work.
warn: Checkpoints for file descriptors currently do not work.
warn: Checkpoints for file descriptors currently do not work.
gem5 Simulator System.  http://gem5.org
gem5 is copyrighted software; use the --copyright option for details.

gem5 version 20.1.0.5
gem5 compiled Jul 12 2024 12:42:38
gem5 started Jul 17 2024 14:27:01
gem5 executing on a07dda8b130c, pid 90375
command line: /home/user/PrIDE/performance/gem5/build/X86/gem5.opt --outdir=/home/user/PrIDE/performance/gem5/stats/pride_multiprogram_16GBmem_250Mn.SPEC2017.C4/RFM1.BR1.4C/mix21 /home/user/PrIDE/performance/gem5/configs/example/se_rq_spec_config_multicore.py --redirects /lib64=/home/utils/gcc-6.2.0/lib64 --benchmark=mix21 --benchmark_stdout=/home/user/PrIDE/performance/gem5/stats/pride_multiprogram_16GBmem_250Mn.SPEC2017.C4/RFM1.BR1.4C/mix21/mix21.out --benchmark_stderr=/home/user/PrIDE/performance/gem5/stats/pride_multiprogram_16GBmem_250Mn.SPEC2017.C4/RFM1.BR1.4C/mix21/mix21.err --spec-version=2017 --rh_defense --rh_mitigation=RFM --rh_rfm_per_trefi=1 --rh_rfm_blast_radius=1 --rh_rfm_maxacts_per_trefi=79 --num-cpus=4 --mem-size=16GB --mem-type=DDR5_2400_32x4 --mem-ranks=1 --checkpoint-dir=/home/user/PrIDE/performance/gem5/cpts/multiprogram_16GBmem_25Bn.SPEC2017.C4/mix21-1-ref-x86 --checkpoint-restore=25000000000 --at-instruction --cpu-type DerivO3CPU --caches --l2cache --l1d_size=32kB --l1i_size=32kB --l2_size=256kB --l1d_assoc=8 --l1i_assoc=8 --l2_assoc=16 --maxinsts=250000000 --prog-interval=300Hz

info: Standard input is not a terminal, disabling listeners.
Benchmark- 0   povray
Selected benchmark
--> povray
CMD: ['/opt/spec2017/benchspec/CPU/511.povray_r/run/run_base_refrate_gem5_se-m64.0000/povray_r_base.gem5_se-m64', '/opt/spec2017/benchspec/CPU/511.povray_r/run/run_base_refrate_gem5_se-m64.0000/SPEC-benchmark-ref.ini']
CWD: /opt/spec2017/benchspec/CPU/511.povray_r/run/run_base_refrate_gem5_se-m64.0000/
Process stdout file: /home/user/PrIDE/performance/gem5/stats/pride_multiprogram_16GBmem_250Mn.SPEC2017.C4/RFM1.BR1.4C/mix21/mix21.out_0
Process stderr file: /home/user/PrIDE/performance/gem5/stats/pride_multiprogram_16GBmem_250Mn.SPEC2017.C4/RFM1.BR1.4C/mix21/mix21.err_0
Benchmark- 1   namd
Selected benchmark
--> namd
CMD: ['/opt/spec2017/benchspec/CPU/508.namd_r/run/run_base_refrate_gem5_se-m64.0000/namd_r_base.gem5_se-m64', '--input', '/opt/spec2017/benchspec/CPU/508.namd_r/run/run_base_refrate_gem5_se-m64.0000/apoa1.input', '--output', '/opt/spec2017/benchspec/CPU/508.namd_r/run/run_base_refrate_gem5_se-m64.0000/apoa1.ref.output', '--iterations', '65']
CWD: /opt/spec2017/benchspec/CPU/508.namd_r/run/run_base_refrate_gem5_se-m64.0000/
Process stdout file: /home/user/PrIDE/performance/gem5/stats/pride_multiprogram_16GBmem_250Mn.SPEC2017.C4/RFM1.BR1.4C/mix21/mix21.out_1
Process stderr file: /home/user/PrIDE/performance/gem5/stats/pride_multiprogram_16GBmem_250Mn.SPEC2017.C4/RFM1.BR1.4C/mix21/mix21.err_1
Benchmark- 2   nab
Selected benchmark
--> nab
CMD: ['/opt/spec2017/benchspec/CPU/544.nab_r/run/run_base_refrate_gem5_se-m64.0000/nab_r_base.gem5_se-m64', '1am0', '1122214447', '122']
CWD: /opt/spec2017/benchspec/CPU/544.nab_r/run/run_base_refrate_gem5_se-m64.0000/
Process stdout file: /home/user/PrIDE/performance/gem5/stats/pride_multiprogram_16GBmem_250Mn.SPEC2017.C4/RFM1.BR1.4C/mix21/mix21.out_2
Process stderr file: /home/user/PrIDE/performance/gem5/stats/pride_multiprogram_16GBmem_250Mn.SPEC2017.C4/RFM1.BR1.4C/mix21/mix21.err_2
Benchmark- 3   roms
Selected benchmark
--> roms
CMD: ['/opt/spec2017/benchspec/CPU/554.roms_r/run/run_base_refrate_gem5_se-m64.0000/roms_r_base.gem5_se-m64']
CWD: /opt/spec2017/benchspec/CPU/554.roms_r/run/run_base_refrate_gem5_se-m64.0000/
Process stdout file: /home/user/PrIDE/performance/gem5/stats/pride_multiprogram_16GBmem_250Mn.SPEC2017.C4/RFM1.BR1.4C/mix21/mix21.out_3
Process stderr file: /home/user/PrIDE/performance/gem5/stats/pride_multiprogram_16GBmem_250Mn.SPEC2017.C4/RFM1.BR1.4C/mix21/mix21.err_3
Workload-0: 
['/opt/spec2017/benchspec/CPU/511.povray_r/run/run_base_refrate_gem5_se-m64.0000/povray_r_base.gem5_se-m64', '/opt/spec2017/benchspec/CPU/511.povray_r/run/run_base_refrate_gem5_se-m64.0000/SPEC-benchmark-ref.ini']
Workload-1: 
['/opt/spec2017/benchspec/CPU/508.namd_r/run/run_base_refrate_gem5_se-m64.0000/namd_r_base.gem5_se-m64', '--input', '/opt/spec2017/benchspec/CPU/508.namd_r/run/run_base_refrate_gem5_se-m64.0000/apoa1.input', '--output', '/opt/spec2017/benchspec/CPU/508.namd_r/run/run_base_refrate_gem5_se-m64.0000/apoa1.ref.output', '--iterations', '65']
Workload-2: 
['/opt/spec2017/benchspec/CPU/544.nab_r/run/run_base_refrate_gem5_se-m64.0000/nab_r_base.gem5_se-m64', '1am0', '1122214447', '122']
Workload-3: 
['/opt/spec2017/benchspec/CPU/554.roms_r/run/run_base_refrate_gem5_se-m64.0000/roms_r_base.gem5_se-m64']
defense_enable:  True  detector:  MG  mitigation:  RFM  threshold:  800
mg_entries:  1700
rfm_maxacts_per_trefi:  79 rfm_per_trefi:  1 rfm_blast_radius:  1
Switch at curTick count:10000
warn: membus.master is deprecated. `master` is now called `mem_side_ports`
warn: No dot file generated. Please install pydot to generate the dot file and pdf.
info: Entering event queue @ 13945158483732.  Starting simulation...
info: Entering event queue @ 13945158493732.  Starting simulation...
warn: PowerState: Already in the requested power state, request ignored
Switched CPUS @ tick 13945158493732
switching cpus
**** REAL SIMULATION ****
info: Entering event queue @ 13945158494055.  Starting simulation...
13948491817065: Event_285: system.switch_cpus3 progress event, total committed:15328372, progress insts committed: 15328372, IPC: 001.5313
13948491817065: Event_284: system.switch_cpus2 progress event, total committed:41131108, progress insts committed: 41131108, IPC: 0004.109
13948491817065: Event_283: system.switch_cpus1 progress event, total committed:33540623, progress insts committed: 33540623, IPC: 03.35071
13948491817065: Event_282: system.switch_cpus0 progress event, total committed:44772410, progress insts committed: 44772410, IPC: 04.47276
13951825150398: Event_282: system.switch_cpus0 progress event, total committed:90651507, progress insts committed: 45879097, IPC: 04.58332
13951825150398: Event_283: system.switch_cpus1 progress event, total committed:67152943, progress insts committed: 33612320, IPC: 03.35787
13951825150398: Event_284: system.switch_cpus2 progress event, total committed:84904857, progress insts committed: 43773749, IPC: 0004.373
13951825150398: Event_285: system.switch_cpus3 progress event, total committed:31600155, progress insts committed: 16271783, IPC: 01.62555
13955158483731: Event_285: system.switch_cpus3 progress event, total committed:42503415, progress insts committed: 10903260, IPC: 01.08924
13955158483731: Event_284: system.switch_cpus2 progress event, total committed:126756442, progress insts committed: 41851585, IPC: 04.18097
13955158483731: Event_283: system.switch_cpus1 progress event, total committed:99916090, progress insts committed: 32763147, IPC: 03.27304
13955158483731: Event_282: system.switch_cpus0 progress event, total committed:134638267, progress insts committed: 43986760, IPC: 04.39428
13958491817064: Event_282: system.switch_cpus0 progress event, total committed:179677722, progress insts committed: 45039455, IPC: 04.49944
13958491817064: Event_283: system.switch_cpus1 progress event, total committed:132650678, progress insts committed: 32734588, IPC: 03.27019
13958491817064: Event_284: system.switch_cpus2 progress event, total committed:169452144, progress insts committed: 42695702, IPC: 004.2653
13958491817064: Event_285: system.switch_cpus3 progress event, total committed:50963269, progress insts committed: 8459854, IPC: 0.845139
13961825150397: Event_285: system.switch_cpus3 progress event, total committed:60082189, progress insts committed: 9118920, IPC: 00.91098
13961825150397: Event_284: system.switch_cpus2 progress event, total committed:214097541, progress insts committed: 44645397, IPC: 04.46008
13961825150397: Event_283: system.switch_cpus1 progress event, total committed:166862176, progress insts committed: 34211498, IPC: 03.41773
13961825150397: Event_282: system.switch_cpus0 progress event, total committed:224796710, progress insts committed: 45118988, IPC: 04.50739
13965158483730: Event_282: system.switch_cpus0 progress event, total committed:269670665, progress insts committed: 44873955, IPC: 04.48291
13965158483730: Event_283: system.switch_cpus1 progress event, total committed:200463133, progress insts committed: 33600957, IPC: 03.35674
13965158483730: Event_284: system.switch_cpus2 progress event, total committed:257940935, progress insts committed: 43843394, IPC: 04.37996
13965158483730: Event_285: system.switch_cpus3 progress event, total committed:67421762, progress insts committed: 7339573, IPC: 0.733223
13968491817063: Event_285: system.switch_cpus3 progress event, total committed:72429640, progress insts committed: 5007878, IPC: 0.500287
13968491817063: Event_284: system.switch_cpus2 progress event, total committed:299477709, progress insts committed: 41536774, IPC: 04.14952
13968491817063: Event_283: system.switch_cpus1 progress event, total committed:232825225, progress insts committed: 32362092, IPC: 03.23297
13968491817063: Event_282: system.switch_cpus0 progress event, total committed:314872790, progress insts committed: 45202125, IPC: 04.51569
13971825150396: Event_282: system.switch_cpus0 progress event, total committed:360108197, progress insts committed: 45235407, IPC: 04.51902
13971825150396: Event_283: system.switch_cpus1 progress event, total committed:264298322, progress insts committed: 31473097, IPC: 03.14416
13971825150396: Event_284: system.switch_cpus2 progress event, total committed:340997237, progress insts committed: 41519528, IPC: 004.1478
13971825150396: Event_285: system.switch_cpus3 progress event, total committed:77340974, progress insts committed: 4911334, IPC: 0.490642
13975158483729: Event_285: system.switch_cpus3 progress event, total committed:87032115, progress insts committed: 9691141, IPC: 0.968145
13975158483729: Event_284: system.switch_cpus2 progress event, total committed:383919649, progress insts committed: 42922412, IPC: 04.28795
13975158483729: Event_283: system.switch_cpus1 progress event, total committed:297060531, progress insts committed: 32762209, IPC: 03.27294
13975158483729: Event_282: system.switch_cpus0 progress event, total committed:405345492, progress insts committed: 45237295, IPC: 04.51921
Exiting @ tick 13975166281230 because a thread reached the max instruction count
