Command line:
./runscript_pride.sh blender RFM2.BR1.4C 4 2017 --rh_defense --rh_mitigation=RFM --rh_rfm_per_trefi=2 --rh_rfm_blast_radius=1 --rh_rfm_maxacts_per_trefi=79
Global frequency set at 1000000000000 ticks per second
RFM details - rfm_act_threshold: 39, blast_radius: 1, delay_per_rfm: 175000 ps. sample_rate: 0.025000
RH Defense config: RFM, Bus Delay: 0, rfms_per_trefi: 2, rfm_act_threshold: 39, blast_radius: 1,rfm_delay_per_act: 45000 ps.
DRAM config: RowsPerBank: 65536, BanksPerRank: 32, RanksPerChannel: 1
warn: Sockets disabled, not accepting gdb connections
warn: CoherentXBar system.cpu0.mmucache.mmubus has no snooping ports attached!
warn: CoherentXBar system.cpu1.mmucache.mmubus has no snooping ports attached!
warn: CoherentXBar system.cpu2.mmucache.mmubus has no snooping ports attached!
warn: CoherentXBar system.cpu3.mmucache.mmubus has no snooping ports attached!
warn: Checkpoints for file descriptors currently do not work.
warn: Checkpoints for file descriptors currently do not work.
warn: Checkpoints for file descriptors currently do not work.
warn: Checkpoints for file descriptors currently do not work.
gem5 Simulator System.  http://gem5.org
gem5 is copyrighted software; use the --copyright option for details.

gem5 version 20.1.0.5
gem5 compiled Jul 12 2024 12:42:38
gem5 started Jul 31 2024 15:38:00
gem5 executing on a07dda8b130c, pid 239107
command line: /home/user/PrIDE/performance/gem5/build/X86/gem5.opt --outdir=/home/user/PrIDE/performance/gem5/stats/pride_multiprogram_16GBmem_250Mn.SPEC2017.C4/RFM2.BR1.4C/blender /home/user/PrIDE/performance/gem5/configs/example/se_rq_spec_config_multicore.py --redirects /lib64=/home/utils/gcc-6.2.0/lib64 --benchmark=blender --benchmark_stdout=/home/user/PrIDE/performance/gem5/stats/pride_multiprogram_16GBmem_250Mn.SPEC2017.C4/RFM2.BR1.4C/blender/blender.out --benchmark_stderr=/home/user/PrIDE/performance/gem5/stats/pride_multiprogram_16GBmem_250Mn.SPEC2017.C4/RFM2.BR1.4C/blender/blender.err --spec-version=2017 --rh_defense --rh_mitigation=RFM --rh_rfm_per_trefi=2 --rh_rfm_blast_radius=1 --rh_rfm_maxacts_per_trefi=79 --num-cpus=4 --mem-size=16GB --mem-type=DDR5_2400_32x4 --mem-ranks=1 --mem-channels=1 --checkpoint-dir=/home/user/PrIDE/performance/gem5/cpts-DDR5/multiprogram_16GBmem_25Bn.SPEC2017.C4/blender-1-ref-x86 --checkpoint-restore=25000000000 --at-instruction --cpu-type DerivO3CPU --caches --l2cache --l1d_size=32kB --l1i_size=32kB --l2_size=256kB --l3_size=4MB --l1d_assoc=8 --l1i_assoc=8 --l2_assoc=16 --l3_assoc=16 --cpu-clock=3GHz --sys-clock=3GHz --maxinsts=250000000 --prog-interval=300Hz

info: Standard input is not a terminal, disabling listeners.
Benchmark- 0   blender
Selected benchmark
--> blender
CMD: ['/opt/spec2017/benchspec/CPU/526.blender_r/run/run_base_refrate_gem5_se-m64.0000/blender_r_base.gem5_se-m64', '/opt/spec2017/benchspec/CPU/526.blender_r/run/run_base_refrate_gem5_se-m64.0000/sh3_no_char.blend', '--render-output', 'sh3_no_char_', '--threads', '1', '-b', '-F', 'RAWTGA', '-s', '849', '-e', '849', '-a']
CWD: /opt/spec2017/benchspec/CPU/526.blender_r/run/run_base_refrate_gem5_se-m64.0000/
Process stdout file: /home/user/PrIDE/performance/gem5/stats/pride_multiprogram_16GBmem_250Mn.SPEC2017.C4/RFM2.BR1.4C/blender/blender.out_0
Process stderr file: /home/user/PrIDE/performance/gem5/stats/pride_multiprogram_16GBmem_250Mn.SPEC2017.C4/RFM2.BR1.4C/blender/blender.err_0
Benchmark- 1   blender
Selected benchmark
--> blender
CMD: ['/opt/spec2017/benchspec/CPU/526.blender_r/run/run_base_refrate_gem5_se-m64.0000/blender_r_base.gem5_se-m64', '/opt/spec2017/benchspec/CPU/526.blender_r/run/run_base_refrate_gem5_se-m64.0000/sh3_no_char.blend', '--render-output', 'sh3_no_char_', '--threads', '1', '-b', '-F', 'RAWTGA', '-s', '849', '-e', '849', '-a']
CWD: /opt/spec2017/benchspec/CPU/526.blender_r/run/run_base_refrate_gem5_se-m64.0000/
Process stdout file: /home/user/PrIDE/performance/gem5/stats/pride_multiprogram_16GBmem_250Mn.SPEC2017.C4/RFM2.BR1.4C/blender/blender.out_1
Process stderr file: /home/user/PrIDE/performance/gem5/stats/pride_multiprogram_16GBmem_250Mn.SPEC2017.C4/RFM2.BR1.4C/blender/blender.err_1
Benchmark- 2   blender
Selected benchmark
--> blender
CMD: ['/opt/spec2017/benchspec/CPU/526.blender_r/run/run_base_refrate_gem5_se-m64.0000/blender_r_base.gem5_se-m64', '/opt/spec2017/benchspec/CPU/526.blender_r/run/run_base_refrate_gem5_se-m64.0000/sh3_no_char.blend', '--render-output', 'sh3_no_char_', '--threads', '1', '-b', '-F', 'RAWTGA', '-s', '849', '-e', '849', '-a']
CWD: /opt/spec2017/benchspec/CPU/526.blender_r/run/run_base_refrate_gem5_se-m64.0000/
Process stdout file: /home/user/PrIDE/performance/gem5/stats/pride_multiprogram_16GBmem_250Mn.SPEC2017.C4/RFM2.BR1.4C/blender/blender.out_2
Process stderr file: /home/user/PrIDE/performance/gem5/stats/pride_multiprogram_16GBmem_250Mn.SPEC2017.C4/RFM2.BR1.4C/blender/blender.err_2
Benchmark- 3   blender
Selected benchmark
--> blender
CMD: ['/opt/spec2017/benchspec/CPU/526.blender_r/run/run_base_refrate_gem5_se-m64.0000/blender_r_base.gem5_se-m64', '/opt/spec2017/benchspec/CPU/526.blender_r/run/run_base_refrate_gem5_se-m64.0000/sh3_no_char.blend', '--render-output', 'sh3_no_char_', '--threads', '1', '-b', '-F', 'RAWTGA', '-s', '849', '-e', '849', '-a']
CWD: /opt/spec2017/benchspec/CPU/526.blender_r/run/run_base_refrate_gem5_se-m64.0000/
Process stdout file: /home/user/PrIDE/performance/gem5/stats/pride_multiprogram_16GBmem_250Mn.SPEC2017.C4/RFM2.BR1.4C/blender/blender.out_3
Process stderr file: /home/user/PrIDE/performance/gem5/stats/pride_multiprogram_16GBmem_250Mn.SPEC2017.C4/RFM2.BR1.4C/blender/blender.err_3
Workload-0: 
['/opt/spec2017/benchspec/CPU/526.blender_r/run/run_base_refrate_gem5_se-m64.0000/blender_r_base.gem5_se-m64', '/opt/spec2017/benchspec/CPU/526.blender_r/run/run_base_refrate_gem5_se-m64.0000/sh3_no_char.blend', '--render-output', 'sh3_no_char_', '--threads', '1', '-b', '-F', 'RAWTGA', '-s', '849', '-e', '849', '-a']
Workload-1: 
['/opt/spec2017/benchspec/CPU/526.blender_r/run/run_base_refrate_gem5_se-m64.0000/blender_r_base.gem5_se-m64', '/opt/spec2017/benchspec/CPU/526.blender_r/run/run_base_refrate_gem5_se-m64.0000/sh3_no_char.blend', '--render-output', 'sh3_no_char_', '--threads', '1', '-b', '-F', 'RAWTGA', '-s', '849', '-e', '849', '-a']
Workload-2: 
['/opt/spec2017/benchspec/CPU/526.blender_r/run/run_base_refrate_gem5_se-m64.0000/blender_r_base.gem5_se-m64', '/opt/spec2017/benchspec/CPU/526.blender_r/run/run_base_refrate_gem5_se-m64.0000/sh3_no_char.blend', '--render-output', 'sh3_no_char_', '--threads', '1', '-b', '-F', 'RAWTGA', '-s', '849', '-e', '849', '-a']
Workload-3: 
['/opt/spec2017/benchspec/CPU/526.blender_r/run/run_base_refrate_gem5_se-m64.0000/blender_r_base.gem5_se-m64', '/opt/spec2017/benchspec/CPU/526.blender_r/run/run_base_refrate_gem5_se-m64.0000/sh3_no_char.blend', '--render-output', 'sh3_no_char_', '--threads', '1', '-b', '-F', 'RAWTGA', '-s', '849', '-e', '849', '-a']
defense_enable:  True  detector:  MG  mitigation:  RFM  threshold:  800
mg_entries:  1700
rfm_maxacts_per_trefi:  79 rfm_per_trefi:  2 rfm_blast_radius:  1
Switch at curTick count:10000
warn: membus.master is deprecated. `master` is now called `mem_side_ports`
warn: No dot file generated. Please install pydot to generate the dot file and pdf.
info: Entering event queue @ 18219162241026.  Starting simulation...
info: Entering event queue @ 18219162251026.  Starting simulation...
warn: PowerState: Already in the requested power state, request ignored
Switched CPUS @ tick 18219162251026
switching cpus
**** REAL SIMULATION ****
info: Entering event queue @ 18219162251682.  Starting simulation...
18222495574359: Event_285: system.switch_cpus3 progress event, total committed:5561264, progress insts committed: 5561264, IPC: 00.55557
18222495574359: Event_284: system.switch_cpus2 progress event, total committed:5561264, progress insts committed: 5561264, IPC: 00.55557
18222495574359: Event_283: system.switch_cpus1 progress event, total committed:5561472, progress insts committed: 5561472, IPC: 0.555591
18222495574359: Event_282: system.switch_cpus0 progress event, total committed:5561247, progress insts committed: 5561247, IPC: 0.555569
18225828907692: Event_282: system.switch_cpus0 progress event, total committed:10931664, progress insts committed: 5370417, IPC: 0.536505
18225828907692: Event_283: system.switch_cpus1 progress event, total committed:10931915, progress insts committed: 5370443, IPC: 0.536507
18225828907692: Event_284: system.switch_cpus2 progress event, total committed:10870607, progress insts committed: 5309343, IPC: 0.530403
18225828907692: Event_285: system.switch_cpus3 progress event, total committed:10931808, progress insts committed: 5370544, IPC: 0.536517
18229162241025: Event_285: system.switch_cpus3 progress event, total committed:16115726, progress insts committed: 5183918, IPC: 0.517873
18229162241025: Event_284: system.switch_cpus2 progress event, total committed:15982805, progress insts committed: 5112198, IPC: 0.510709
18229162241025: Event_283: system.switch_cpus1 progress event, total committed:16115540, progress insts committed: 5183625, IPC: 0.517844
18229162241025: Event_282: system.switch_cpus0 progress event, total committed:16115523, progress insts committed: 5183859, IPC: 0.517868
18232495574358: Event_282: system.switch_cpus0 progress event, total committed:21262881, progress insts committed: 5147358, IPC: 0.514221
18232495574358: Event_283: system.switch_cpus1 progress event, total committed:21263015, progress insts committed: 5147475, IPC: 0.514233
18232495574358: Event_284: system.switch_cpus2 progress event, total committed:21058967, progress insts committed: 5076162, IPC: 0.507109
18232495574358: Event_285: system.switch_cpus3 progress event, total committed:21263015, progress insts committed: 5147289, IPC: 0.514214
18235828907691: Event_285: system.switch_cpus3 progress event, total committed:26427895, progress insts committed: 5164880, IPC: 0.515972
18235828907691: Event_284: system.switch_cpus2 progress event, total committed:26146595, progress insts committed: 5087628, IPC: 0.508254
18235828907691: Event_283: system.switch_cpus1 progress event, total committed:26426516, progress insts committed: 5163501, IPC: 0.515834
18235828907691: Event_282: system.switch_cpus0 progress event, total committed:26427839, progress insts committed: 5164958, IPC: 0.515979
18239162241024: Event_282: system.switch_cpus0 progress event, total committed:31662894, progress insts committed: 5235055, IPC: 0.522982
18239162241024: Event_283: system.switch_cpus1 progress event, total committed:31645010, progress insts committed: 5218494, IPC: 0.521328
18239162241024: Event_284: system.switch_cpus2 progress event, total committed:31320192, progress insts committed: 5173597, IPC: 0.516842
18239162241024: Event_285: system.switch_cpus3 progress event, total committed:31663085, progress insts committed: 5235190, IPC: 0.522995
18242495574357: Event_285: system.switch_cpus3 progress event, total committed:36994003, progress insts committed: 5330918, IPC: 0.532559
18242495574357: Event_284: system.switch_cpus2 progress event, total committed:36614000, progress insts committed: 5293808, IPC: 0.528851
18242495574357: Event_283: system.switch_cpus1 progress event, total committed:36974243, progress insts committed: 5329233, IPC: 00.53239
18242495574357: Event_282: system.switch_cpus0 progress event, total committed:36985458, progress insts committed: 5322564, IPC: 0.531724
18245828907690: Event_282: system.switch_cpus0 progress event, total committed:41708598, progress insts committed: 4723140, IPC: 0.471842
18245828907690: Event_283: system.switch_cpus1 progress event, total committed:41702840, progress insts committed: 4728597, IPC: 0.472387
18245828907690: Event_284: system.switch_cpus2 progress event, total committed:41443822, progress insts committed: 4829822, IPC: 0.482499
18245828907690: Event_285: system.switch_cpus3 progress event, total committed:41718185, progress insts committed: 4724182, IPC: 0.471946
18249162241023: Event_285: system.switch_cpus3 progress event, total committed:44170043, progress insts committed: 2451858, IPC: 0.244941
18249162241023: Event_284: system.switch_cpus2 progress event, total committed:43850005, progress insts committed: 2406183, IPC: 0.240378
18249162241023: Event_283: system.switch_cpus1 progress event, total committed:44151491, progress insts committed: 2448651, IPC: 00.24462
18249162241023: Event_282: system.switch_cpus0 progress event, total committed:44163413, progress insts committed: 2454815, IPC: 0.245236
18252495574356: Event_282: system.switch_cpus0 progress event, total committed:46613439, progress insts committed: 2450026, IPC: 0.244758
18252495574356: Event_283: system.switch_cpus1 progress event, total committed:46575396, progress insts committed: 2423905, IPC: 0.242148
18252495574356: Event_284: system.switch_cpus2 progress event, total committed:46242756, progress insts committed: 2392751, IPC: 0.239036
18252495574356: Event_285: system.switch_cpus3 progress event, total committed:46639421, progress insts committed: 2469378, IPC: 0.246691
18255828907689: Event_285: system.switch_cpus3 progress event, total committed:49080980, progress insts committed: 2441559, IPC: 0.243912
18255828907689: Event_284: system.switch_cpus2 progress event, total committed:48649560, progress insts committed: 2406804, IPC: 00.24044
18255828907689: Event_283: system.switch_cpus1 progress event, total committed:49010855, progress insts committed: 2435459, IPC: 0.243302
18255828907689: Event_282: system.switch_cpus0 progress event, total committed:49064382, progress insts committed: 2450943, IPC: 0.244849
18259162241022: Event_282: system.switch_cpus0 progress event, total committed:51496068, progress insts committed: 2431686, IPC: 0.242925
18259162241022: Event_283: system.switch_cpus1 progress event, total committed:51409845, progress insts committed: 2398990, IPC: 0.239659
18259162241022: Event_284: system.switch_cpus2 progress event, total committed:51087541, progress insts committed: 2437981, IPC: 0.243554
18259162241022: Event_285: system.switch_cpus3 progress event, total committed:51522371, progress insts committed: 2441391, IPC: 0.243895
18262495574355: Event_285: system.switch_cpus3 progress event, total committed:53876980, progress insts committed: 2354609, IPC: 0.235225
18262495574355: Event_284: system.switch_cpus2 progress event, total committed:53479220, progress insts committed: 2391679, IPC: 0.238929
18262495574355: Event_283: system.switch_cpus1 progress event, total committed:53800915, progress insts committed: 2391070, IPC: 0.238868
18262495574355: Event_282: system.switch_cpus0 progress event, total committed:53891754, progress insts committed: 2395686, IPC: 0.239329
18265828907688: Event_282: system.switch_cpus0 progress event, total committed:56310933, progress insts committed: 2419179, IPC: 0.241676
18265828907688: Event_283: system.switch_cpus1 progress event, total committed:56170755, progress insts committed: 2369840, IPC: 0.236747
18265828907688: Event_284: system.switch_cpus2 progress event, total committed:55823320, progress insts committed: 2344100, IPC: 0.234176
18265828907688: Event_285: system.switch_cpus3 progress event, total committed:56251605, progress insts committed: 2374625, IPC: 0.237225
18269162241021: Event_285: system.switch_cpus3 progress event, total committed:58642565, progress insts committed: 2390960, IPC: 0.238857
18269162241021: Event_284: system.switch_cpus2 progress event, total committed:58200174, progress insts committed: 2376854, IPC: 0.237448
18269162241021: Event_283: system.switch_cpus1 progress event, total committed:58584980, progress insts committed: 2414225, IPC: 0.241181
18269162241021: Event_282: system.switch_cpus0 progress event, total committed:58705688, progress insts committed: 2394755, IPC: 0.239236
18272495574354: Event_282: system.switch_cpus0 progress event, total committed:61065573, progress insts committed: 2359885, IPC: 0.235753
18272495574354: Event_283: system.switch_cpus1 progress event, total committed:60945872, progress insts committed: 2360892, IPC: 0.235853
18272495574354: Event_284: system.switch_cpus2 progress event, total committed:60572020, progress insts committed: 2371846, IPC: 0.236947
18272495574354: Event_285: system.switch_cpus3 progress event, total committed:61015807, progress insts committed: 2373242, IPC: 0.237087
18275828907687: Event_285: system.switch_cpus3 progress event, total committed:63378996, progress insts committed: 2363189, IPC: 0.236083
18275828907687: Event_284: system.switch_cpus2 progress event, total committed:62931169, progress insts committed: 2359149, IPC: 0.235679
18275828907687: Event_283: system.switch_cpus1 progress event, total committed:63329830, progress insts committed: 2383958, IPC: 0.238157
18275828907687: Event_282: system.switch_cpus0 progress event, total committed:63405218, progress insts committed: 2339645, IPC: 0.233731
18279162241020: Event_282: system.switch_cpus0 progress event, total committed:65777474, progress insts committed: 2372256, IPC: 0.236988
18279162241020: Event_283: system.switch_cpus1 progress event, total committed:65737785, progress insts committed: 2407955, IPC: 0.240555
18279162241020: Event_284: system.switch_cpus2 progress event, total committed:65333366, progress insts committed: 2402197, IPC: 0.239979
18279162241020: Event_285: system.switch_cpus3 progress event, total committed:65752745, progress insts committed: 2373749, IPC: 0.237138
18282495574353: Event_285: system.switch_cpus3 progress event, total committed:68160920, progress insts committed: 2408175, IPC: 0.240577
18282495574353: Event_284: system.switch_cpus2 progress event, total committed:67727080, progress insts committed: 2393714, IPC: 0.239132
18282495574353: Event_283: system.switch_cpus1 progress event, total committed:68132375, progress insts committed: 2394590, IPC: 00.23922
18282495574353: Event_282: system.switch_cpus0 progress event, total committed:68169703, progress insts committed: 2392229, IPC: 0.238984
18285828907686: Event_282: system.switch_cpus0 progress event, total committed:70624023, progress insts committed: 2454320, IPC: 0.245187
18285828907686: Event_283: system.switch_cpus1 progress event, total committed:70582020, progress insts committed: 2449645, IPC: 00.24472
18285828907686: Event_284: system.switch_cpus2 progress event, total committed:70175625, progress insts committed: 2448545, IPC: 00.24461
18285828907686: Event_285: system.switch_cpus3 progress event, total committed:70608695, progress insts committed: 2447775, IPC: 0.244533
18289162241019: Event_285: system.switch_cpus3 progress event, total committed:73037931, progress insts committed: 2429236, IPC: 0.242681
18289162241019: Event_284: system.switch_cpus2 progress event, total committed:72593971, progress insts committed: 2418346, IPC: 0.241593
18289162241019: Event_283: system.switch_cpus1 progress event, total committed:73000421, progress insts committed: 2418401, IPC: 0.241598
18289162241019: Event_282: system.switch_cpus0 progress event, total committed:73047653, progress insts committed: 2423630, IPC: 0.242121
18292495574352: Event_282: system.switch_cpus0 progress event, total committed:75429754, progress insts committed: 2382101, IPC: 0.237972
18292495574352: Event_283: system.switch_cpus1 progress event, total committed:75433786, progress insts committed: 2433365, IPC: 0.243093
18292495574352: Event_284: system.switch_cpus2 progress event, total committed:75030559, progress insts committed: 2436588, IPC: 0.243415
18292495574352: Event_285: system.switch_cpus3 progress event, total committed:75452651, progress insts committed: 2414720, IPC: 0.241231
18295828907685: Event_285: system.switch_cpus3 progress event, total committed:77884256, progress insts committed: 2431605, IPC: 0.242917
18295828907685: Event_284: system.switch_cpus2 progress event, total committed:77457727, progress insts committed: 2427168, IPC: 0.242474
18295828907685: Event_283: system.switch_cpus1 progress event, total committed:77886680, progress insts committed: 2452894, IPC: 0.245044
18295828907685: Event_282: system.switch_cpus0 progress event, total committed:77855863, progress insts committed: 2426109, IPC: 0.242368
18299162241018: Event_282: system.switch_cpus0 progress event, total committed:82762675, progress insts committed: 4906812, IPC: 0.490191
18299162241018: Event_283: system.switch_cpus1 progress event, total committed:82895019, progress insts committed: 5008339, IPC: 0.500333
18299162241018: Event_284: system.switch_cpus2 progress event, total committed:82123053, progress insts committed: 4665326, IPC: 0.466066
18299162241018: Event_285: system.switch_cpus3 progress event, total committed:82872782, progress insts committed: 4988526, IPC: 0.498354
18302495574351: Event_285: system.switch_cpus3 progress event, total committed:88447137, progress insts committed: 5574355, IPC: 0.556878
18302495574351: Event_284: system.switch_cpus2 progress event, total committed:87644049, progress insts committed: 5520996, IPC: 0.551548
18302495574351: Event_283: system.switch_cpus1 progress event, total committed:88465038, progress insts committed: 5570019, IPC: 0.556445
18302495574351: Event_282: system.switch_cpus0 progress event, total committed:88312687, progress insts committed: 5550012, IPC: 0.554446
18305828907684: Event_282: system.switch_cpus0 progress event, total committed:93790510, progress insts committed: 5477823, IPC: 0.547235
18305828907684: Event_283: system.switch_cpus1 progress event, total committed:93944205, progress insts committed: 5479167, IPC: 0.547369
18305828907684: Event_284: system.switch_cpus2 progress event, total committed:93113271, progress insts committed: 5469222, IPC: 0.546375
18305828907684: Event_285: system.switch_cpus3 progress event, total committed:93936132, progress insts committed: 5488995, IPC: 0.548351
18309162241017: Event_285: system.switch_cpus3 progress event, total committed:99528228, progress insts committed: 5592096, IPC: 00.55865
18309162241017: Event_284: system.switch_cpus2 progress event, total committed:98664396, progress insts committed: 5551125, IPC: 0.554557
18309162241017: Event_283: system.switch_cpus1 progress event, total committed:99538949, progress insts committed: 5594744, IPC: 0.558915
18309162241017: Event_282: system.switch_cpus0 progress event, total committed:99336985, progress insts committed: 5546475, IPC: 0.554093
18312495574350: Event_282: system.switch_cpus0 progress event, total committed:104759002, progress insts committed: 5422017, IPC: 0.541659
18312495574350: Event_283: system.switch_cpus1 progress event, total committed:104997010, progress insts committed: 5458061, IPC: 00.54526
18312495574350: Event_284: system.switch_cpus2 progress event, total committed:104105244, progress insts committed: 5440848, IPC: 0.543541
18312495574350: Event_285: system.switch_cpus3 progress event, total committed:104990063, progress insts committed: 5461835, IPC: 0.545637
18315828907683: Event_285: system.switch_cpus3 progress event, total committed:110371540, progress insts committed: 5381477, IPC: 00.53761
18315828907683: Event_284: system.switch_cpus2 progress event, total committed:109439337, progress insts committed: 5334093, IPC: 0.532876
18315828907683: Event_283: system.switch_cpus1 progress event, total committed:110373706, progress insts committed: 5376696, IPC: 0.537132
18315828907683: Event_282: system.switch_cpus0 progress event, total committed:110097743, progress insts committed: 5338741, IPC: 00.53334
18319162241016: Event_282: system.switch_cpus0 progress event, total committed:115421296, progress insts committed: 5323553, IPC: 0.531823
18319162241016: Event_283: system.switch_cpus1 progress event, total committed:115735405, progress insts committed: 5361699, IPC: 0.535634
18319162241016: Event_284: system.switch_cpus2 progress event, total committed:114763603, progress insts committed: 5324266, IPC: 0.531894
18319162241016: Event_285: system.switch_cpus3 progress event, total committed:115733944, progress insts committed: 5362404, IPC: 0.535704
18322495574349: Event_285: system.switch_cpus3 progress event, total committed:120320438, progress insts committed: 4586494, IPC: 0.458191
18322495574349: Event_284: system.switch_cpus2 progress event, total committed:120221121, progress insts committed: 5457518, IPC: 0.545206
18322495574349: Event_283: system.switch_cpus1 progress event, total committed:120320492, progress insts committed: 4585087, IPC: 00.45805
18322495574349: Event_282: system.switch_cpus0 progress event, total committed:120307269, progress insts committed: 4885973, IPC: 0.488109
18325828907682: Event_282: system.switch_cpus0 progress event, total committed:120478198, progress insts committed: 170929, IPC: 0.0170758
18325828907682: Event_283: system.switch_cpus1 progress event, total committed:120492350, progress insts committed: 171858, IPC: 0.0171686
18325828907682: Event_284: system.switch_cpus2 progress event, total committed:120454151, progress insts committed: 233030, IPC: 0.0232797
18325828907682: Event_285: system.switch_cpus3 progress event, total committed:120492326, progress insts committed: 171888, IPC: 0.0171716
18329162241015: Event_285: system.switch_cpus3 progress event, total committed:120644825, progress insts committed: 152499, IPC: 0.0152347
18329162241015: Event_284: system.switch_cpus2 progress event, total committed:120602918, progress insts committed: 148767, IPC: 0.0148618
18329162241015: Event_283: system.switch_cpus1 progress event, total committed:120644894, progress insts committed: 152544, IPC: 0.0152391
18329162241015: Event_282: system.switch_cpus0 progress event, total committed:120628728, progress insts committed: 150530, IPC: 0.0150379
18332495574348: Event_282: system.switch_cpus0 progress event, total committed:120778620, progress insts committed: 149892, IPC: 0.0149742
18332495574348: Event_283: system.switch_cpus1 progress event, total committed:120796910, progress insts committed: 152016, IPC: 0.0151864
18332495574348: Event_284: system.switch_cpus2 progress event, total committed:120753893, progress insts committed: 150975, IPC: 0.0150824
18332495574348: Event_285: system.switch_cpus3 progress event, total committed:120796583, progress insts committed: 151758, IPC: 0.0151606
18335828907681: Event_285: system.switch_cpus3 progress event, total committed:120949997, progress insts committed: 153414, IPC: 0.0153261
18335828907681: Event_284: system.switch_cpus2 progress event, total committed:120905433, progress insts committed: 151540, IPC: 0.0151388
18335828907681: Event_283: system.switch_cpus1 progress event, total committed:120950204, progress insts committed: 153294, IPC: 0.0153141
18335828907681: Event_282: system.switch_cpus0 progress event, total committed:120930810, progress insts committed: 152190, IPC: 0.0152038
18339162241014: Event_282: system.switch_cpus0 progress event, total committed:121082604, progress insts committed: 151794, IPC: 0.0151642
18339162241014: Event_283: system.switch_cpus1 progress event, total committed:121102721, progress insts committed: 152517, IPC: 0.0152364
18339162241014: Event_284: system.switch_cpus2 progress event, total committed:121056368, progress insts committed: 150935, IPC: 0.0150784
18339162241014: Event_285: system.switch_cpus3 progress event, total committed:121102370, progress insts committed: 152373, IPC: 0.0152221
18342495574347: Event_285: system.switch_cpus3 progress event, total committed:121250976, progress insts committed: 148606, IPC: 0.0148457
18342495574347: Event_284: system.switch_cpus2 progress event, total committed:121204769, progress insts committed: 148401, IPC: 0.0148253
18342495574347: Event_283: system.switch_cpus1 progress event, total committed:121251254, progress insts committed: 148533, IPC: 0.0148384
18342495574347: Event_282: system.switch_cpus0 progress event, total committed:121229367, progress insts committed: 146763, IPC: 0.0146616
18345828907680: Event_282: system.switch_cpus0 progress event, total committed:121381708, progress insts committed: 152341, IPC: 0.0152189
18345828907680: Event_283: system.switch_cpus1 progress event, total committed:121410360, progress insts committed: 159106, IPC: 0.0158947
18345828907680: Event_284: system.switch_cpus2 progress event, total committed:121354407, progress insts committed: 149638, IPC: 0.0149488
18345828907680: Event_285: system.switch_cpus3 progress event, total committed:121410075, progress insts committed: 159099, IPC: 0.015894
18349162241013: Event_285: system.switch_cpus3 progress event, total committed:121573005, progress insts committed: 162930, IPC: 0.0162767
18349162241013: Event_284: system.switch_cpus2 progress event, total committed:121518237, progress insts committed: 163830, IPC: 0.0163666
18349162241013: Event_283: system.switch_cpus1 progress event, total committed:121573146, progress insts committed: 162786, IPC: 0.0162623
18349162241013: Event_282: system.switch_cpus0 progress event, total committed:121544080, progress insts committed: 162372, IPC: 0.016221
18352495574346: Event_282: system.switch_cpus0 progress event, total committed:121705000, progress insts committed: 160920, IPC: 0.0160759
18352495574346: Event_283: system.switch_cpus1 progress event, total committed:121739784, progress insts committed: 166638, IPC: 0.0166471
18352495574346: Event_284: system.switch_cpus2 progress event, total committed:121676979, progress insts committed: 158742, IPC: 0.0158583
18352495574346: Event_285: system.switch_cpus3 progress event, total committed:121739757, progress insts committed: 166752, IPC: 0.0166585
18355828907679: Event_285: system.switch_cpus3 progress event, total committed:121900926, progress insts committed: 161169, IPC: 0.0161008
18355828907679: Event_284: system.switch_cpus2 progress event, total committed:121837791, progress insts committed: 160812, IPC: 0.0160651
18355828907679: Event_283: system.switch_cpus1 progress event, total committed:121901115, progress insts committed: 161331, IPC: 0.016117
18355828907679: Event_282: system.switch_cpus0 progress event, total committed:121865803, progress insts committed: 160803, IPC: 0.0160642
18359162241012: Event_282: system.switch_cpus0 progress event, total committed:122028520, progress insts committed: 162717, IPC: 0.0162554
18359162241012: Event_283: system.switch_cpus1 progress event, total committed:122066628, progress insts committed: 165513, IPC: 0.0165347
18359162241012: Event_284: system.switch_cpus2 progress event, total committed:122000859, progress insts committed: 163068, IPC: 0.0162905
18359162241012: Event_285: system.switch_cpus3 progress event, total committed:122066628, progress insts committed: 165702, IPC: 0.0165536
18362495574345: Event_285: system.switch_cpus3 progress event, total committed:122229366, progress insts committed: 162738, IPC: 0.0162575
18362495574345: Event_284: system.switch_cpus2 progress event, total committed:122160738, progress insts committed: 159879, IPC: 0.0159719
18362495574345: Event_283: system.switch_cpus1 progress event, total committed:122229426, progress insts committed: 162798, IPC: 0.0162635
18362495574345: Event_282: system.switch_cpus0 progress event, total committed:122188702, progress insts committed: 160182, IPC: 0.0160022
18365828907678: Event_282: system.switch_cpus0 progress event, total committed:122347246, progress insts committed: 158544, IPC: 0.0158385
18365828907678: Event_283: system.switch_cpus1 progress event, total committed:122391402, progress insts committed: 161976, IPC: 0.0161814
18365828907678: Event_284: system.switch_cpus2 progress event, total committed:122319222, progress insts committed: 158484, IPC: 0.0158326
18365828907678: Event_285: system.switch_cpus3 progress event, total committed:122391216, progress insts committed: 161850, IPC: 0.0161688
18369162241011: Event_285: system.switch_cpus3 progress event, total committed:122554821, progress insts committed: 163605, IPC: 0.0163441
18369162241011: Event_284: system.switch_cpus2 progress event, total committed:122480670, progress insts committed: 161448, IPC: 0.0161287
18369162241011: Event_283: system.switch_cpus1 progress event, total committed:122554908, progress insts committed: 163506, IPC: 0.0163342
18369162241011: Event_282: system.switch_cpus0 progress event, total committed:122507545, progress insts committed: 160299, IPC: 0.0160139
18372495574344: Event_282: system.switch_cpus0 progress event, total committed:122669647, progress insts committed: 162102, IPC: 0.016194
18372495574344: Event_283: system.switch_cpus1 progress event, total committed:122719605, progress insts committed: 164697, IPC: 0.0164532
18372495574344: Event_284: system.switch_cpus2 progress event, total committed:122642424, progress insts committed: 161754, IPC: 0.0161592
18372495574344: Event_285: system.switch_cpus3 progress event, total committed:122718888, progress insts committed: 164067, IPC: 0.0163903
18375828907677: Event_285: system.switch_cpus3 progress event, total committed:122882004, progress insts committed: 163116, IPC: 0.0162953
18375828907677: Event_284: system.switch_cpus2 progress event, total committed:122804667, progress insts committed: 162243, IPC: 0.0162081
18375828907677: Event_283: system.switch_cpus1 progress event, total committed:122882568, progress insts committed: 162963, IPC: 00.01628
18375828907677: Event_282: system.switch_cpus0 progress event, total committed:122832118, progress insts committed: 162471, IPC: 0.0162309
18379162241010: Event_282: system.switch_cpus0 progress event, total committed:122994811, progress insts committed: 162693, IPC: 0.016253
18379162241010: Event_283: system.switch_cpus1 progress event, total committed:123047859, progress insts committed: 165291, IPC: 0.0165126
18379162241010: Event_284: system.switch_cpus2 progress event, total committed:122967393, progress insts committed: 162726, IPC: 0.0162563
18379162241010: Event_285: system.switch_cpus3 progress event, total committed:123047463, progress insts committed: 165459, IPC: 0.0165294
18382495574343: Event_285: system.switch_cpus3 progress event, total committed:123215112, progress insts committed: 167649, IPC: 0.0167481
18382495574343: Event_284: system.switch_cpus2 progress event, total committed:123130587, progress insts committed: 163194, IPC: 0.0163031
18382495574343: Event_283: system.switch_cpus1 progress event, total committed:123215637, progress insts committed: 167778, IPC: 0.016761
18382495574343: Event_282: system.switch_cpus0 progress event, total committed:123158614, progress insts committed: 163803, IPC: 0.0163639
18385828907676: Event_282: system.switch_cpus0 progress event, total committed:123291517, progress insts committed: 132903, IPC: 0.013277
18385828907676: Event_283: system.switch_cpus1 progress event, total committed:123989342, progress insts committed: 773705, IPC: 0.0772931
18385828907676: Event_284: system.switch_cpus2 progress event, total committed:123265434, progress insts committed: 134847, IPC: 0.0134712
18385828907676: Event_285: system.switch_cpus3 progress event, total committed:123976637, progress insts committed: 761525, IPC: 0.0760763
18389162241009: Event_285: system.switch_cpus3 progress event, total committed:125402582, progress insts committed: 1425945, IPC: 0.142452
18389162241009: Event_284: system.switch_cpus2 progress event, total committed:123989672, progress insts committed: 724238, IPC: 0.0723514
18389162241009: Event_283: system.switch_cpus1 progress event, total committed:125415542, progress insts committed: 1426200, IPC: 0.142477
18389162241009: Event_282: system.switch_cpus0 progress event, total committed:124445685, progress insts committed: 1154168, IPC: 0.115301
18392495574342: Event_282: system.switch_cpus0 progress event, total committed:125833770, progress insts committed: 1388085, IPC: 00.13867
18392495574342: Event_283: system.switch_cpus1 progress event, total committed:126800873, progress insts committed: 1385331, IPC: 0.138395
18392495574342: Event_284: system.switch_cpus2 progress event, total committed:125395293, progress insts committed: 1405621, IPC: 0.140422
18392495574342: Event_285: system.switch_cpus3 progress event, total committed:126790277, progress insts committed: 1387695, IPC: 0.138631
18395828907675: Event_285: system.switch_cpus3 progress event, total committed:128202362, progress insts committed: 1412085, IPC: 0.141067
18395828907675: Event_284: system.switch_cpus2 progress event, total committed:126774197, progress insts committed: 1378904, IPC: 0.137753
18395828907675: Event_283: system.switch_cpus1 progress event, total committed:128213867, progress insts committed: 1412994, IPC: 0.141158
18395828907675: Event_282: system.switch_cpus0 progress event, total committed:127234920, progress insts committed: 1401150, IPC: 0.139975
18399162241008: Event_282: system.switch_cpus0 progress event, total committed:128646735, progress insts committed: 1411815, IPC: 00.14104
18399162241008: Event_283: system.switch_cpus1 progress event, total committed:129624902, progress insts committed: 1411035, IPC: 0.140962
18399162241008: Event_284: system.switch_cpus2 progress event, total committed:128185967, progress insts committed: 1411770, IPC: 0.141036
18399162241008: Event_285: system.switch_cpus3 progress event, total committed:129613157, progress insts committed: 1410795, IPC: 0.140938
18402495574341: Event_285: system.switch_cpus3 progress event, total committed:131014577, progress insts committed: 1401420, IPC: 0.140002
18402495574341: Event_284: system.switch_cpus2 progress event, total committed:129608462, progress insts committed: 1422495, IPC: 0.142107
18402495574341: Event_283: system.switch_cpus1 progress event, total committed:131024357, progress insts committed: 1399455, IPC: 0.139806
18402495574341: Event_282: system.switch_cpus0 progress event, total committed:130070085, progress insts committed: 1423350, IPC: 0.142193
18405828907674: Event_282: system.switch_cpus0 progress event, total committed:131466915, progress insts committed: 1396830, IPC: 0.139543
18405828907674: Event_283: system.switch_cpus1 progress event, total committed:132426464, progress insts committed: 1402107, IPC: 00.14007
18405828907674: Event_284: system.switch_cpus2 progress event, total committed:131021102, progress insts committed: 1412640, IPC: 0.141123
18405828907674: Event_285: system.switch_cpus3 progress event, total committed:132414662, progress insts committed: 1400085, IPC: 0.139868
warn: MOVNTDQ: Ignoring non-temporal hint, modeling as cacheable!
18409162241007: Event_285: system.switch_cpus3 progress event, total committed:133738371, progress insts committed: 1323709, IPC: 0.132239
18409162241007: Event_284: system.switch_cpus2 progress event, total committed:132512942, progress insts committed: 1491840, IPC: 0.149035
18409162241007: Event_283: system.switch_cpus1 progress event, total committed:133741110, progress insts committed: 1314646, IPC: 0.131333
18409162241007: Event_282: system.switch_cpus0 progress event, total committed:132964770, progress insts committed: 1497855, IPC: 0.149636
18412495574340: Event_282: system.switch_cpus0 progress event, total committed:134116138, progress insts committed: 1151368, IPC: 0.115022
18412495574340: Event_283: system.switch_cpus1 progress event, total committed:134317686, progress insts committed: 576576, IPC: 0.0575999
18412495574340: Event_284: system.switch_cpus2 progress event, total committed:134026758, progress insts committed: 1513816, IPC: 00.15123
18412495574340: Event_285: system.switch_cpus3 progress event, total committed:134315112, progress insts committed: 576741, IPC: 0.0576164
18415828907673: Event_285: system.switch_cpus3 progress event, total committed:134973957, progress insts committed: 658845, IPC: 0.0658186
18415828907673: Event_284: system.switch_cpus2 progress event, total committed:134686923, progress insts committed: 660165, IPC: 0.0659505
18415828907673: Event_283: system.switch_cpus1 progress event, total committed:134976531, progress insts committed: 658845, IPC: 0.0658186
18415828907673: Event_282: system.switch_cpus0 progress event, total committed:134776303, progress insts committed: 660165, IPC: 0.0659505
18419162241006: Event_282: system.switch_cpus0 progress event, total committed:135390970, progress insts committed: 614667, IPC: 0.0614052
18419162241006: Event_283: system.switch_cpus1 progress event, total committed:135802820, progress insts committed: 826289, IPC: 0.0825463
18419162241006: Event_284: system.switch_cpus2 progress event, total committed:135301581, progress insts committed: 614658, IPC: 0.0614043
18419162241006: Event_285: system.switch_cpus3 progress event, total committed:135789050, progress insts committed: 815093, IPC: 0.0814278
18422495574339: Event_285: system.switch_cpus3 progress event, total committed:137442395, progress insts committed: 1653345, IPC: 0.165169
18422495574339: Event_284: system.switch_cpus2 progress event, total committed:136040031, progress insts committed: 738450, IPC: 0.0737712
18422495574339: Event_283: system.switch_cpus1 progress event, total committed:137452580, progress insts committed: 1649760, IPC: 0.164811
18422495574339: Event_282: system.switch_cpus0 progress event, total committed:136459638, progress insts committed: 1068668, IPC: 00.10676
18425828907672: Event_282: system.switch_cpus0 progress event, total committed:137783163, progress insts committed: 1323525, IPC: 00.13222
18425828907672: Event_283: system.switch_cpus1 progress event, total committed:138728660, progress insts committed: 1276080, IPC: 00.12748
18425828907672: Event_284: system.switch_cpus2 progress event, total committed:137381660, progress insts committed: 1341629, IPC: 0.134029
18425828907672: Event_285: system.switch_cpus3 progress event, total committed:138721370, progress insts committed: 1278975, IPC: 00.12777
18429162241005: Event_285: system.switch_cpus3 progress event, total committed:139921670, progress insts committed: 1200300, IPC: 00.11991
18429162241005: Event_284: system.switch_cpus2 progress event, total committed:138593750, progress insts committed: 1212090, IPC: 0.121088
18429162241005: Event_283: system.switch_cpus1 progress event, total committed:139928150, progress insts committed: 1199490, IPC: 0.119829
18429162241005: Event_282: system.switch_cpus0 progress event, total committed:139002078, progress insts committed: 1218915, IPC: 00.12177
18432495574338: Event_282: system.switch_cpus0 progress event, total committed:140228043, progress insts committed: 1225965, IPC: 0.122474
18432495574338: Event_283: system.switch_cpus1 progress event, total committed:141155060, progress insts committed: 1226910, IPC: 0.122568
18432495574338: Event_284: system.switch_cpus2 progress event, total committed:139832555, progress insts committed: 1238805, IPC: 0.123757
18432495574338: Event_285: system.switch_cpus3 progress event, total committed:141147320, progress insts committed: 1225650, IPC: 0.122442
18435828907671: Event_285: system.switch_cpus3 progress event, total committed:142473125, progress insts committed: 1325805, IPC: 0.132448
18435828907671: Event_284: system.switch_cpus2 progress event, total committed:141101810, progress insts committed: 1269255, IPC: 0.126799
18435828907671: Event_283: system.switch_cpus1 progress event, total committed:142481570, progress insts committed: 1326510, IPC: 0.132518
18435828907671: Event_282: system.switch_cpus0 progress event, total committed:141508758, progress insts committed: 1280715, IPC: 0.127943
18439162241004: Event_282: system.switch_cpus0 progress event, total committed:142858023, progress insts committed: 1349265, IPC: 0.134792
18439162241004: Event_283: system.switch_cpus1 progress event, total committed:143833460, progress insts committed: 1351890, IPC: 0.135054
18439162241004: Event_284: system.switch_cpus2 progress event, total committed:142438475, progress insts committed: 1336665, IPC: 0.133533
18439162241004: Event_285: system.switch_cpus3 progress event, total committed:143824295, progress insts committed: 1351170, IPC: 0.134982
18442495574337: Event_285: system.switch_cpus3 progress event, total committed:145197260, progress insts committed: 1372965, IPC: 0.137159
18442495574337: Event_284: system.switch_cpus2 progress event, total committed:143814395, progress insts committed: 1375920, IPC: 0.137454
18442495574337: Event_283: system.switch_cpus1 progress event, total committed:145207340, progress insts committed: 1373880, IPC: 0.137251
18442495574337: Event_282: system.switch_cpus0 progress event, total committed:144230583, progress insts committed: 1372560, IPC: 0.137119
18445828907670: Event_282: system.switch_cpus0 progress event, total committed:145947928, progress insts committed: 1717345, IPC: 0.171563
18445828907670: Event_283: system.switch_cpus1 progress event, total committed:146145219, progress insts committed: 937879, IPC: 0.0936941
18445828907670: Event_284: system.switch_cpus2 progress event, total committed:145650380, progress insts committed: 1835985, IPC: 0.183415
18445828907670: Event_285: system.switch_cpus3 progress event, total committed:146142876, progress insts committed: 945616, IPC: 0.094467
18449162241003: Event_285: system.switch_cpus3 progress event, total committed:146805945, progress insts committed: 663069, IPC: 0.0662406
18449162241003: Event_284: system.switch_cpus2 progress event, total committed:146531616, progress insts committed: 881236, IPC: 0.0880355
18449162241003: Event_283: system.switch_cpus1 progress event, total committed:146808255, progress insts committed: 663036, IPC: 0.0662373
18449162241003: Event_282: system.switch_cpus0 progress event, total committed:146610964, progress insts committed: 663036, IPC: 0.0662373
18452495574336: Event_282: system.switch_cpus0 progress event, total committed:147275023, progress insts committed: 664059, IPC: 0.0663395
18452495574336: Event_283: system.switch_cpus1 progress event, total committed:147472281, progress insts committed: 664026, IPC: 0.0663362
18452495574336: Event_284: system.switch_cpus2 progress event, total committed:147195642, progress insts committed: 664026, IPC: 0.0663362
18452495574336: Event_285: system.switch_cpus3 progress event, total committed:147469971, progress insts committed: 664026, IPC: 0.0663362
18455828907669: Event_285: system.switch_cpus3 progress event, total committed:149125993, progress insts committed: 1656022, IPC: 0.165437
18455828907669: Event_284: system.switch_cpus2 progress event, total committed:147733872, progress insts committed: 538230, IPC: 0.0537692
18455828907669: Event_283: system.switch_cpus1 progress event, total committed:149139067, progress insts committed: 1666786, IPC: 0.166512
18455828907669: Event_282: system.switch_cpus0 progress event, total committed:148024682, progress insts committed: 749659, IPC: 0.0748909
18459162241002: Event_282: system.switch_cpus0 progress event, total committed:150051064, progress insts committed: 2026382, IPC: 0.202436
18459162241002: Event_283: system.switch_cpus1 progress event, total committed:151165357, progress insts committed: 2026290, IPC: 0.202426
18459162241002: Event_284: system.switch_cpus2 progress event, total committed:149619574, progress insts committed: 1885702, IPC: 0.188382
18459162241002: Event_285: system.switch_cpus3 progress event, total committed:151152299, progress insts committed: 2026306, IPC: 0.202428
18462495574335: Event_285: system.switch_cpus3 progress event, total committed:152902638, progress insts committed: 1750339, IPC: 0.174859
18462495574335: Event_284: system.switch_cpus2 progress event, total committed:151507081, progress insts committed: 1887507, IPC: 0.188562
18462495574335: Event_283: system.switch_cpus1 progress event, total committed:152914128, progress insts committed: 1748771, IPC: 0.174702
18462495574335: Event_282: system.switch_cpus0 progress event, total committed:151938840, progress insts committed: 1887776, IPC: 0.188589
18465828907668: Event_282: system.switch_cpus0 progress event, total committed:153312286, progress insts committed: 1373446, IPC: 0.137207
18465828907668: Event_283: system.switch_cpus1 progress event, total committed:154270893, progress insts committed: 1356765, IPC: 0.135541
18465828907668: Event_284: system.switch_cpus2 progress event, total committed:152941248, progress insts committed: 1434167, IPC: 0.143273
18465828907668: Event_285: system.switch_cpus3 progress event, total committed:154259568, progress insts committed: 1356930, IPC: 0.135557
18469162241001: Event_285: system.switch_cpus3 progress event, total committed:155613288, progress insts committed: 1353720, IPC: 0.135237
18469162241001: Event_284: system.switch_cpus2 progress event, total committed:154294428, progress insts committed: 1353180, IPC: 0.135183
18469162241001: Event_283: system.switch_cpus1 progress event, total committed:155624223, progress insts committed: 1353330, IPC: 0.135198
18469162241001: Event_282: system.switch_cpus0 progress event, total committed:154665586, progress insts committed: 1353300, IPC: 0.135195
18472495574334: Event_282: system.switch_cpus0 progress event, total committed:156053236, progress insts committed: 1387650, IPC: 0.138626
18472495574334: Event_283: system.switch_cpus1 progress event, total committed:157012008, progress insts committed: 1387785, IPC: 00.13864
18472495574334: Event_284: system.switch_cpus2 progress event, total committed:155682093, progress insts committed: 1387665, IPC: 0.138628
18472495574334: Event_285: system.switch_cpus3 progress event, total committed:157001058, progress insts committed: 1387770, IPC: 0.138638
18475828907667: Event_285: system.switch_cpus3 progress event, total committed:158412528, progress insts committed: 1411470, IPC: 0.141006
18475828907667: Event_284: system.switch_cpus2 progress event, total committed:157093368, progress insts committed: 1411275, IPC: 0.140986
18475828907667: Event_283: system.switch_cpus1 progress event, total committed:158423568, progress insts committed: 1411560, IPC: 0.141015
18475828907667: Event_282: system.switch_cpus0 progress event, total committed:157464631, progress insts committed: 1411395, IPC: 0.140998
18479162241000: Event_282: system.switch_cpus0 progress event, total committed:158950214, progress insts committed: 1485583, IPC: 00.14841
18479162241000: Event_283: system.switch_cpus1 progress event, total committed:159140242, progress insts committed: 716674, IPC: 0.0715957
18479162241000: Event_284: system.switch_cpus2 progress event, total committed:158881423, progress insts committed: 1788055, IPC: 0.178627
18479162241000: Event_285: system.switch_cpus3 progress event, total committed:159137935, progress insts committed: 725407, IPC: 0.0724682
18482495574333: Event_285: system.switch_cpus3 progress event, total committed:159708937, progress insts committed: 571002, IPC: 0.0570431
18482495574333: Event_284: system.switch_cpus2 progress event, total committed:159452395, progress insts committed: 570972, IPC: 0.0570401
18482495574333: Event_283: system.switch_cpus1 progress event, total committed:159711214, progress insts committed: 570972, IPC: 0.0570401
18482495574333: Event_282: system.switch_cpus0 progress event, total committed:159521186, progress insts committed: 570972, IPC: 0.0570401
18485828907666: Event_282: system.switch_cpus0 progress event, total committed:160070633, progress insts committed: 549447, IPC: 0.0548898
18485828907666: Event_283: system.switch_cpus1 progress event, total committed:160260634, progress insts committed: 549420, IPC: 0.0548871
18485828907666: Event_284: system.switch_cpus2 progress event, total committed:160001812, progress insts committed: 549417, IPC: 0.0548868
18485828907666: Event_285: system.switch_cpus3 progress event, total committed:160258354, progress insts committed: 549417, IPC: 0.0548868
18489162240999: Event_285: system.switch_cpus3 progress event, total committed:161588235, progress insts committed: 1329881, IPC: 0.132855
18489162240999: Event_284: system.switch_cpus2 progress event, total committed:160553209, progress insts committed: 551397, IPC: 0.0550846
18489162240999: Event_283: system.switch_cpus1 progress event, total committed:161607870, progress insts committed: 1347236, IPC: 0.134589
18489162240999: Event_282: system.switch_cpus0 progress event, total committed:160679453, progress insts committed: 608820, IPC: 0.0608211
18492495574332: Event_282: system.switch_cpus0 progress event, total committed:163027513, progress insts committed: 2348060, IPC: 0.234571
18492495574332: Event_283: system.switch_cpus1 progress event, total committed:163982990, progress insts committed: 2375120, IPC: 0.237274
18492495574332: Event_284: system.switch_cpus2 progress event, total committed:162710620, progress insts committed: 2157411, IPC: 0.215525
18492495574332: Event_285: system.switch_cpus3 progress event, total committed:163944490, progress insts committed: 2356255, IPC: 00.23539
18495828907665: Event_285: system.switch_cpus3 progress event, total committed:166363720, progress insts committed: 2419230, IPC: 0.241681
18495828907665: Event_284: system.switch_cpus2 progress event, total committed:165116265, progress insts committed: 2405645, IPC: 0.240324
18495828907665: Event_283: system.switch_cpus1 progress event, total committed:166396170, progress insts committed: 2413180, IPC: 0.241077
18495828907665: Event_282: system.switch_cpus0 progress event, total committed:165426283, progress insts committed: 2398770, IPC: 0.239637
18499162240998: Event_282: system.switch_cpus0 progress event, total committed:167818508, progress insts committed: 2392225, IPC: 0.238983
18499162240998: Event_283: system.switch_cpus1 progress event, total committed:168765625, progress insts committed: 2369455, IPC: 0.236709
18499162240998: Event_284: system.switch_cpus2 progress event, total committed:167479226, progress insts committed: 2362961, IPC: 00.23606
18499162240998: Event_285: system.switch_cpus3 progress event, total committed:168746316, progress insts committed: 2382596, IPC: 0.238021
18502495574331: Event_285: system.switch_cpus3 progress event, total committed:171120281, progress insts committed: 2373965, IPC: 0.237159
18502495574331: Event_284: system.switch_cpus2 progress event, total committed:169828771, progress insts committed: 2349545, IPC: 00.23472
18502495574331: Event_283: system.switch_cpus1 progress event, total committed:171068475, progress insts committed: 2302850, IPC: 0.230055
18502495574331: Event_282: system.switch_cpus0 progress event, total committed:170181689, progress insts committed: 2363181, IPC: 0.236082
18505828907664: Event_282: system.switch_cpus0 progress event, total committed:172535418, progress insts committed: 2353729, IPC: 0.235138
18505828907664: Event_283: system.switch_cpus1 progress event, total committed:173440075, progress insts committed: 2371600, IPC: 0.236923
18505828907664: Event_284: system.switch_cpus2 progress event, total committed:172187171, progress insts committed: 2358400, IPC: 0.235604
18505828907664: Event_285: system.switch_cpus3 progress event, total committed:173517900, progress insts committed: 2397619, IPC: 0.239522
18509162240997: Event_285: system.switch_cpus3 progress event, total committed:178861721, progress insts committed: 5343821, IPC: 0.533848
18509162240997: Event_284: system.switch_cpus2 progress event, total committed:176609542, progress insts committed: 4422371, IPC: 0.441795
18509162240997: Event_283: system.switch_cpus1 progress event, total committed:178730738, progress insts committed: 5290663, IPC: 0.528537
18509162240997: Event_282: system.switch_cpus0 progress event, total committed:177206204, progress insts committed: 4670786, IPC: 0.466612
18512495574330: Event_282: system.switch_cpus0 progress event, total committed:182797235, progress insts committed: 5591031, IPC: 0.558544
18512495574330: Event_283: system.switch_cpus1 progress event, total committed:184313053, progress insts committed: 5582315, IPC: 0.557673
18512495574330: Event_284: system.switch_cpus2 progress event, total committed:182193889, progress insts committed: 5584347, IPC: 0.557876
18512495574330: Event_285: system.switch_cpus3 progress event, total committed:184449377, progress insts committed: 5587656, IPC: 0.558207
18515828907663: Event_285: system.switch_cpus3 progress event, total committed:190103165, progress insts committed: 5653788, IPC: 0.564813
18515828907663: Event_284: system.switch_cpus2 progress event, total committed:187813341, progress insts committed: 5619452, IPC: 0.561383
18515828907663: Event_283: system.switch_cpus1 progress event, total committed:189961421, progress insts committed: 5648368, IPC: 0.564272
18515828907663: Event_282: system.switch_cpus0 progress event, total committed:188408814, progress insts committed: 5611579, IPC: 0.560597
18519162240996: Event_282: system.switch_cpus0 progress event, total committed:194082630, progress insts committed: 5673816, IPC: 0.566814
18519162240996: Event_283: system.switch_cpus1 progress event, total committed:195185296, progress insts committed: 5223875, IPC: 0.521865
18519162240996: Event_284: system.switch_cpus2 progress event, total committed:193474697, progress insts committed: 5661356, IPC: 0.565569
18519162240996: Event_285: system.switch_cpus3 progress event, total committed:195271756, progress insts committed: 5168591, IPC: 0.516342
18522495574329: Event_285: system.switch_cpus3 progress event, total committed:197710397, progress insts committed: 2438641, IPC: 00.24362
18522495574329: Event_284: system.switch_cpus2 progress event, total committed:196400572, progress insts committed: 2925875, IPC: 0.292295
18522495574329: Event_283: system.switch_cpus1 progress event, total committed:197639836, progress insts committed: 2454540, IPC: 0.245209
18522495574329: Event_282: system.switch_cpus0 progress event, total committed:196731659, progress insts committed: 2649029, IPC: 0.264638
18525828907662: Event_282: system.switch_cpus0 progress event, total committed:199019054, progress insts committed: 2287395, IPC: 0.228511
18525828907662: Event_283: system.switch_cpus1 progress event, total committed:199923931, progress insts committed: 2284095, IPC: 0.228181
18525828907662: Event_284: system.switch_cpus2 progress event, total committed:198676197, progress insts committed: 2275625, IPC: 0.227335
18525828907662: Event_285: system.switch_cpus3 progress event, total committed:199996637, progress insts committed: 2286240, IPC: 0.228395
18529162240995: Event_285: system.switch_cpus3 progress event, total committed:202287356, progress insts committed: 2290719, IPC: 0.228843
18529162240995: Event_284: system.switch_cpus2 progress event, total committed:200890171, progress insts committed: 2213974, IPC: 0.221176
18529162240995: Event_283: system.switch_cpus1 progress event, total committed:202122446, progress insts committed: 2198515, IPC: 0.219632
18529162240995: Event_282: system.switch_cpus0 progress event, total committed:201268829, progress insts committed: 2249775, IPC: 0.224753
18532495574328: Event_282: system.switch_cpus0 progress event, total committed:203518604, progress insts committed: 2249775, IPC: 0.224753
18532495574328: Event_283: system.switch_cpus1 progress event, total committed:204305563, progress insts committed: 2183117, IPC: 0.218093
18532495574328: Event_284: system.switch_cpus2 progress event, total committed:203160035, progress insts committed: 2269864, IPC: 0.226759
18532495574328: Event_285: system.switch_cpus3 progress event, total committed:204565212, progress insts committed: 2277856, IPC: 0.227558
18535828907661: Event_285: system.switch_cpus3 progress event, total committed:206842153, progress insts committed: 2276941, IPC: 0.227466
18535828907661: Event_284: system.switch_cpus2 progress event, total committed:205423593, progress insts committed: 2263558, IPC: 0.226129
18535828907661: Event_283: system.switch_cpus1 progress event, total committed:206578876, progress insts committed: 2273313, IPC: 0.227104
18535828907661: Event_282: system.switch_cpus0 progress event, total committed:205779958, progress insts committed: 2261354, IPC: 0.225909
18539162240994: Event_282: system.switch_cpus0 progress event, total committed:209134165, progress insts committed: 3354207, IPC: 0.335085
18539162240994: Event_283: system.switch_cpus1 progress event, total committed:210704471, progress insts committed: 4125595, IPC: 0.412147
18539162240994: Event_284: system.switch_cpus2 progress event, total committed:207759113, progress insts committed: 2335520, IPC: 0.233318
18539162240994: Event_285: system.switch_cpus3 progress event, total committed:211131864, progress insts committed: 4289711, IPC: 0.428542
18542495574327: Event_285: system.switch_cpus3 progress event, total committed:216139262, progress insts committed: 5007398, IPC: 0.500239
18542495574327: Event_284: system.switch_cpus2 progress event, total committed:213780627, progress insts committed: 6021514, IPC: 0.601549
18542495574327: Event_283: system.switch_cpus1 progress event, total committed:215709255, progress insts committed: 5004784, IPC: 0.499978
18542495574327: Event_282: system.switch_cpus0 progress event, total committed:214479685, progress insts committed: 5345520, IPC: 0.534017
18545828907660: Event_282: system.switch_cpus0 progress event, total committed:219684747, progress insts committed: 5205062, IPC: 0.519986
18545828907660: Event_283: system.switch_cpus1 progress event, total committed:220939389, progress insts committed: 5230134, IPC: 00.52249
18545828907660: Event_284: system.switch_cpus2 progress event, total committed:218980281, progress insts committed: 5199654, IPC: 0.519445
18545828907660: Event_285: system.switch_cpus3 progress event, total committed:221372048, progress insts committed: 5232786, IPC: 0.522755
18549162240993: Event_285: system.switch_cpus3 progress event, total committed:225527330, progress insts committed: 4155282, IPC: 0.415113
18549162240993: Event_284: system.switch_cpus2 progress event, total committed:223948395, progress insts committed: 4968114, IPC: 0.496315
18549162240993: Event_283: system.switch_cpus1 progress event, total committed:225282525, progress insts committed: 4343136, IPC: 0.433879
18549162240993: Event_282: system.switch_cpus0 progress event, total committed:224463499, progress insts committed: 4778752, IPC: 0.477397
18552495574326: Event_282: system.switch_cpus0 progress event, total committed:226887404, progress insts committed: 2423905, IPC: 0.242148
18552495574326: Event_283: system.switch_cpus1 progress event, total committed:227691745, progress insts committed: 2409220, IPC: 0.240681
18552495574326: Event_284: system.switch_cpus2 progress event, total committed:226380981, progress insts committed: 2432586, IPC: 0.243015
18552495574326: Event_285: system.switch_cpus3 progress event, total committed:227919885, progress insts committed: 2392555, IPC: 0.239016
18555828907659: Event_285: system.switch_cpus3 progress event, total committed:230295555, progress insts committed: 2375670, IPC: 0.237329
18555828907659: Event_284: system.switch_cpus2 progress event, total committed:228771891, progress insts committed: 2390910, IPC: 0.238852
18555828907659: Event_283: system.switch_cpus1 progress event, total committed:230059935, progress insts committed: 2368190, IPC: 0.236582
18555828907659: Event_282: system.switch_cpus0 progress event, total committed:229277488, progress insts committed: 2390084, IPC: 0.238769
18559162240992: Event_282: system.switch_cpus0 progress event, total committed:231624668, progress insts committed: 2347180, IPC: 0.234483
18559162240992: Event_283: system.switch_cpus1 progress event, total committed:232394960, progress insts committed: 2335025, IPC: 0.233269
18559162240992: Event_284: system.switch_cpus2 progress event, total committed:231108762, progress insts committed: 2336871, IPC: 0.233453
18559162240992: Event_285: system.switch_cpus3 progress event, total committed:232636080, progress insts committed: 2340525, IPC: 0.233818
18562495574325: Event_285: system.switch_cpus3 progress event, total committed:234970830, progress insts committed: 2334750, IPC: 0.233242
18562495574325: Event_284: system.switch_cpus2 progress event, total committed:233464832, progress insts committed: 2356070, IPC: 0.235371
18562495574325: Event_283: system.switch_cpus1 progress event, total committed:234735375, progress insts committed: 2340415, IPC: 0.233807
18562495574325: Event_282: system.switch_cpus0 progress event, total committed:233963484, progress insts committed: 2338816, IPC: 0.233648
18565828907658: Event_282: system.switch_cpus0 progress event, total committed:236297853, progress insts committed: 2334369, IPC: 0.233203
18565828907658: Event_283: system.switch_cpus1 progress event, total committed:237124080, progress insts committed: 2388705, IPC: 0.238632
18565828907658: Event_284: system.switch_cpus2 progress event, total committed:235840765, progress insts committed: 2375933, IPC: 0.237356
18565828907658: Event_285: system.switch_cpus3 progress event, total committed:237368225, progress insts committed: 2397395, IPC: 000.2395
18569162240991: Event_285: system.switch_cpus3 progress event, total committed:242927304, progress insts committed: 5559079, IPC: 0.555352
18569162240991: Event_284: system.switch_cpus2 progress event, total committed:240308734, progress insts committed: 4467969, IPC: 00.44635
18569162240991: Event_283: system.switch_cpus1 progress event, total committed:242395656, progress insts committed: 5271576, IPC: 00.52663
18569162240991: Event_282: system.switch_cpus0 progress event, total committed:241175787, progress insts committed: 4877934, IPC: 0.487306
18572495574324: Event_282: system.switch_cpus0 progress event, total committed:246684391, progress insts committed: 5508604, IPC: 00.55031
18572495574324: Event_283: system.switch_cpus1 progress event, total committed:247964512, progress insts committed: 5568856, IPC: 0.556329
18572495574324: Event_284: system.switch_cpus2 progress event, total committed:245836392, progress insts committed: 5527658, IPC: 0.552213
18572495574324: Event_285: system.switch_cpus3 progress event, total committed:248469433, progress insts committed: 5542129, IPC: 0.553659
18575828907657: Event_285: system.switch_cpus3 progress event, total committed:254082442, progress insts committed: 5613009, IPC: 00.56074
18575828907657: Event_284: system.switch_cpus2 progress event, total committed:251385612, progress insts committed: 5549220, IPC: 0.554367
18575828907657: Event_283: system.switch_cpus1 progress event, total committed:253564132, progress insts committed: 5599620, IPC: 0.559402
18575828907657: Event_282: system.switch_cpus0 progress event, total committed:252256192, progress insts committed: 5571801, IPC: 0.556623
18579162240990: Event_282: system.switch_cpus0 progress event, total committed:257398146, progress insts committed: 5141954, IPC: 0.513681
18579162240990: Event_283: system.switch_cpus1 progress event, total committed:257450966, progress insts committed: 3886834, IPC: 0.388295
18579162240990: Event_284: system.switch_cpus2 progress event, total committed:256974890, progress insts committed: 5589278, IPC: 0.558369
18579162240990: Event_285: system.switch_cpus3 progress event, total committed:257471042, progress insts committed: 3388600, IPC: 0.338521
18582495574323: Event_285: system.switch_cpus3 progress event, total committed:257639313, progress insts committed: 168271, IPC: 0.0168103
18582495574323: Event_284: system.switch_cpus2 progress event, total committed:257537492, progress insts committed: 562602, IPC: 0.0562039
18582495574323: Event_283: system.switch_cpus1 progress event, total committed:257621249, progress insts committed: 170283, IPC: 0.0170113
18582495574323: Event_282: system.switch_cpus0 progress event, total committed:257570157, progress insts committed: 172011, IPC: 0.0171839
18585828907656: Event_282: system.switch_cpus0 progress event, total committed:257722845, progress insts committed: 152688, IPC: 0.0152535
18585828907656: Event_283: system.switch_cpus1 progress event, total committed:257775887, progress insts committed: 154638, IPC: 0.0154483
18585828907656: Event_284: system.switch_cpus2 progress event, total committed:257689892, progress insts committed: 152400, IPC: 0.0152248
18585828907656: Event_285: system.switch_cpus3 progress event, total committed:257794604, progress insts committed: 155291, IPC: 0.0155136
18589162240989: Event_285: system.switch_cpus3 progress event, total committed:257956436, progress insts committed: 161832, IPC: 0.016167
18589162240989: Event_284: system.switch_cpus2 progress event, total committed:257843567, progress insts committed: 153675, IPC: 0.0153521
18589162240989: Event_283: system.switch_cpus1 progress event, total committed:257935373, progress insts committed: 159486, IPC: 0.0159327
18589162240989: Event_282: system.switch_cpus0 progress event, total committed:257876754, progress insts committed: 153909, IPC: 0.0153755
18592495574322: Event_282: system.switch_cpus0 progress event, total committed:258044673, progress insts committed: 167919, IPC: 0.0167751
18592495574322: Event_283: system.switch_cpus1 progress event, total committed:258105638, progress insts committed: 170265, IPC: 0.0170095
18592495574322: Event_284: system.switch_cpus2 progress event, total committed:258008771, progress insts committed: 165204, IPC: 0.0165039
18592495574322: Event_285: system.switch_cpus3 progress event, total committed:258126791, progress insts committed: 170355, IPC: 0.0170185
18595828907655: Event_285: system.switch_cpus3 progress event, total committed:258296840, progress insts committed: 170049, IPC: 0.0169879
18595828907655: Event_284: system.switch_cpus2 progress event, total committed:258177332, progress insts committed: 168561, IPC: 0.0168392
18595828907655: Event_283: system.switch_cpus1 progress event, total committed:258275033, progress insts committed: 169395, IPC: 0.0169226
18595828907655: Event_282: system.switch_cpus0 progress event, total committed:258210927, progress insts committed: 166254, IPC: 0.0166088
18599162240988: Event_282: system.switch_cpus0 progress event, total committed:258371091, progress insts committed: 160164, IPC: 0.0160004
18599162240988: Event_283: system.switch_cpus1 progress event, total committed:258436568, progress insts committed: 161535, IPC: 0.0161373
18599162240988: Event_284: system.switch_cpus2 progress event, total committed:258335048, progress insts committed: 157716, IPC: 0.0157558
18599162240988: Event_285: system.switch_cpus3 progress event, total committed:258853740, progress insts committed: 556900, IPC: 0.0556343
18602495574321: Event_285: system.switch_cpus3 progress event, total committed:261035378, progress insts committed: 2181638, IPC: 0.217946
18602495574321: Event_284: system.switch_cpus2 progress event, total committed:258700138, progress insts committed: 365090, IPC: 0.0364725
18602495574321: Event_283: system.switch_cpus1 progress event, total committed:260674898, progress insts committed: 2238330, IPC: 0.223609
18602495574321: Event_282: system.switch_cpus0 progress event, total committed:259411671, progress insts committed: 1040580, IPC: 0.103954
18605828907654: Event_282: system.switch_cpus0 progress event, total committed:261264321, progress insts committed: 1852650, IPC: 00.18508
18605828907654: Event_283: system.switch_cpus1 progress event, total committed:262361138, progress insts committed: 1686240, IPC: 0.168455
18605828907654: Event_284: system.switch_cpus2 progress event, total committed:260651648, progress insts committed: 1951510, IPC: 0.194956
18605828907654: Event_285: system.switch_cpus3 progress event, total committed:262538051, progress insts committed: 1502673, IPC: 0.150117
18609162240987: Event_285: system.switch_cpus3 progress event, total committed:263355191, progress insts committed: 817140, IPC: 0.0816323
18609162240987: Event_284: system.switch_cpus2 progress event, total committed:262608440, progress insts committed: 1956792, IPC: 0.195484
18609162240987: Event_283: system.switch_cpus1 progress event, total committed:263147061, progress insts committed: 785923, IPC: 0.0785137
18609162240987: Event_282: system.switch_cpus0 progress event, total committed:262733526, progress insts committed: 1469205, IPC: 0.146774
18612495574320: Event_282: system.switch_cpus0 progress event, total committed:263711644, progress insts committed: 978118, IPC: 0.097714
18612495574320: Event_283: system.switch_cpus1 progress event, total committed:264748091, progress insts committed: 1601030, IPC: 0.159943
18612495574320: Event_284: system.switch_cpus2 progress event, total committed:263183556, progress insts committed: 575116, IPC: 0.0574541
18612495574320: Event_285: system.switch_cpus3 progress event, total committed:264950661, progress insts committed: 1595470, IPC: 0.159387
18615828907653: Event_285: system.switch_cpus3 progress event, total committed:266191371, progress insts committed: 1240710, IPC: 0.123947
18615828907653: Event_284: system.switch_cpus2 progress event, total committed:264441636, progress insts committed: 1258080, IPC: 0.125682
18615828907653: Event_283: system.switch_cpus1 progress event, total committed:265991541, progress insts committed: 1243450, IPC: 0.124221
18615828907653: Event_282: system.switch_cpus0 progress event, total committed:264959419, progress insts committed: 1247775, IPC: 0.124653
18619162240986: Event_282: system.switch_cpus0 progress event, total committed:266611236, progress insts committed: 1651817, IPC: 0.165017
18619162240986: Event_283: system.switch_cpus1 progress event, total committed:266853817, progress insts committed: 862276, IPC: 0.0861414
18619162240986: Event_284: system.switch_cpus2 progress event, total committed:266094981, progress insts committed: 1653345, IPC: 0.165169
18619162240986: Event_285: system.switch_cpus3 progress event, total committed:266902303, progress insts committed: 710932, IPC: 0.0710221
18622495574319: Event_285: system.switch_cpus3 progress event, total committed:268475472, progress insts committed: 1573169, IPC: 00.15716
18622495574319: Event_284: system.switch_cpus2 progress event, total committed:266976742, progress insts committed: 881761, IPC: 0.0880879
18622495574319: Event_283: system.switch_cpus1 progress event, total committed:268230657, progress insts committed: 1376840, IPC: 0.137546
18622495574319: Event_282: system.switch_cpus0 progress event, total committed:267096152, progress insts committed: 484916, IPC: 0.0484431
18625828907652: Event_282: system.switch_cpus0 progress event, total committed:268450405, progress insts committed: 1354253, IPC: 00.13529
18625828907652: Event_283: system.switch_cpus1 progress event, total committed:269589942, progress insts committed: 1359285, IPC: 0.135793
18625828907652: Event_284: system.switch_cpus2 progress event, total committed:267913272, progress insts committed: 936530, IPC: 0.0935593
18625828907652: Event_285: system.switch_cpus3 progress event, total committed:269836752, progress insts committed: 1361280, IPC: 0.135992
18629162240985: Event_285: system.switch_cpus3 progress event, total committed:270882604, progress insts committed: 1045852, IPC: 0.104481
18629162240985: Event_284: system.switch_cpus2 progress event, total committed:269329032, progress insts committed: 1415760, IPC: 0.141434
18629162240985: Event_283: system.switch_cpus1 progress event, total committed:270827863, progress insts committed: 1237921, IPC: 0.123668
18629162240985: Event_282: system.switch_cpus0 progress event, total committed:269876455, progress insts committed: 1426050, IPC: 0.142462
18632495574318: Event_282: system.switch_cpus0 progress event, total committed:271080923, progress insts committed: 1204468, IPC: 0.120326
18632495574318: Event_283: system.switch_cpus1 progress event, total committed:271503033, progress insts committed: 675170, IPC: 0.0674495
18632495574318: Event_284: system.switch_cpus2 progress event, total committed:270967453, progress insts committed: 1638421, IPC: 0.163678
18632495574318: Event_285: system.switch_cpus3 progress event, total committed:271779404, progress insts committed: 896800, IPC: 0.0895903
18635828907651: Event_285: system.switch_cpus3 progress event, total committed:274254408, progress insts committed: 2475004, IPC: 0.247253
18635828907651: Event_284: system.switch_cpus2 progress event, total committed:272235578, progress insts committed: 1268125, IPC: 0.126686
18635828907651: Event_283: system.switch_cpus1 progress event, total committed:273964444, progress insts committed: 2461411, IPC: 0.245895
18635828907651: Event_282: system.switch_cpus0 progress event, total committed:272765981, progress insts committed: 1685058, IPC: 0.168337
18639162240984: Event_282: system.switch_cpus0 progress event, total committed:275186307, progress insts committed: 2420326, IPC: 0.241791
18639162240984: Event_283: system.switch_cpus1 progress event, total committed:276390549, progress insts committed: 2426105, IPC: 0.242368
18639162240984: Event_284: system.switch_cpus2 progress event, total committed:274666908, progress insts committed: 2431330, IPC: 00.24289
18639162240984: Event_285: system.switch_cpus3 progress event, total committed:276683978, progress insts committed: 2429570, IPC: 0.242714
18642495574317: Event_285: system.switch_cpus3 progress event, total committed:281018511, progress insts committed: 4334533, IPC: 00.43302
18642495574317: Event_284: system.switch_cpus2 progress event, total committed:277195148, progress insts committed: 2528240, IPC: 0.252571
18642495574317: Event_283: system.switch_cpus1 progress event, total committed:280486985, progress insts committed: 4096436, IPC: 0.409234
18642495574317: Event_282: system.switch_cpus0 progress event, total committed:277725386, progress insts committed: 2539079, IPC: 0.253654
18645828907650: Event_282: system.switch_cpus0 progress event, total committed:283743841, progress insts committed: 6018455, IPC: 0.601244
18645828907650: Event_283: system.switch_cpus1 progress event, total committed:285597083, progress insts committed: 5110098, IPC: 0.510499
18645828907650: Event_284: system.switch_cpus2 progress event, total committed:282875330, progress insts committed: 5680182, IPC: 00.56745
18645828907650: Event_285: system.switch_cpus3 progress event, total committed:286138170, progress insts committed: 5119659, IPC: 0.511454
18649162240983: Event_285: system.switch_cpus3 progress event, total committed:290060296, progress insts committed: 3922126, IPC: 00.39182
18649162240983: Event_284: system.switch_cpus2 progress event, total committed:288144312, progress insts committed: 5268982, IPC: 0.526371
18649162240983: Event_283: system.switch_cpus1 progress event, total committed:289792281, progress insts committed: 4195198, IPC: 000.4191
18649162240983: Event_282: system.switch_cpus0 progress event, total committed:288710249, progress insts committed: 4966408, IPC: 0.496144
18652495574316: Event_282: system.switch_cpus0 progress event, total committed:291054844, progress insts committed: 2344595, IPC: 0.234225
18652495574316: Event_283: system.switch_cpus1 progress event, total committed:292160141, progress insts committed: 2367860, IPC: 0.236549
18652495574316: Event_284: system.switch_cpus2 progress event, total committed:290577516, progress insts committed: 2433204, IPC: 0.243077
18652495574316: Event_285: system.switch_cpus3 progress event, total committed:292415946, progress insts committed: 2355650, IPC: 0.235329
18655828907649: Event_285: system.switch_cpus3 progress event, total committed:294713131, progress insts committed: 2297185, IPC: 0.229489
18655828907649: Event_284: system.switch_cpus2 progress event, total committed:292838621, progress insts committed: 2261105, IPC: 0.225884
18655828907649: Event_283: system.switch_cpus1 progress event, total committed:294474918, progress insts committed: 2314777, IPC: 0.231246
18655828907649: Event_282: system.switch_cpus0 progress event, total committed:293350764, progress insts committed: 2295920, IPC: 0.229362
18659162240982: Event_282: system.switch_cpus0 progress event, total committed:297664436, progress insts committed: 4313672, IPC: 0.430936
18659162240982: Event_283: system.switch_cpus1 progress event, total committed:299446857, progress insts committed: 4971939, IPC: 0.496697
18659162240982: Event_284: system.switch_cpus2 progress event, total committed:296673255, progress insts committed: 3834634, IPC: 00.38308
18659162240982: Event_285: system.switch_cpus3 progress event, total committed:299889149, progress insts committed: 5176018, IPC: 0.517084
18662495574315: Event_285: system.switch_cpus3 progress event, total committed:304496054, progress insts committed: 4606905, IPC: 00.46023
18662495574315: Event_284: system.switch_cpus2 progress event, total committed:301822950, progress insts committed: 5149695, IPC: 0.514455
18662495574315: Event_283: system.switch_cpus1 progress event, total committed:304206648, progress insts committed: 4759791, IPC: 0.475503
18662495574315: Event_282: system.switch_cpus0 progress event, total committed:302748463, progress insts committed: 5084027, IPC: 0.507894
18665828907648: Event_282: system.switch_cpus0 progress event, total committed:305721221, progress insts committed: 2972758, IPC: 0.296979
18665828907648: Event_283: system.switch_cpus1 progress event, total committed:306819368, progress insts committed: 2612720, IPC: 0.261011
18665828907648: Event_284: system.switch_cpus2 progress event, total committed:305097318, progress insts committed: 3274368, IPC: 0.327109
18665828907648: Event_285: system.switch_cpus3 progress event, total committed:307151128, progress insts committed: 2655074, IPC: 0.265242
18669162240981: Event_285: system.switch_cpus3 progress event, total committed:309516894, progress insts committed: 2365766, IPC: 00.23634
18669162240981: Event_284: system.switch_cpus2 progress event, total committed:307435148, progress insts committed: 2337830, IPC: 0.233549
18669162240981: Event_283: system.switch_cpus1 progress event, total committed:309229963, progress insts committed: 2410595, IPC: 0.240818
18669162240981: Event_282: system.switch_cpus0 progress event, total committed:308123287, progress insts committed: 2402066, IPC: 0.239966
18672495574314: Event_282: system.switch_cpus0 progress event, total committed:311987265, progress insts committed: 3863978, IPC: 0.386011
18672495574314: Event_283: system.switch_cpus1 progress event, total committed:313677021, progress insts committed: 4447058, IPC: 0.444261
18672495574314: Event_284: system.switch_cpus2 progress event, total committed:309981609, progress insts committed: 2546461, IPC: 0.254391
18672495574314: Event_285: system.switch_cpus3 progress event, total committed:314283315, progress insts committed: 4766421, IPC: 0.476165
18675828907647: Event_285: system.switch_cpus3 progress event, total committed:319537755, progress insts committed: 5254440, IPC: 0.524919
18675828907647: Event_284: system.switch_cpus2 progress event, total committed:316109568, progress insts committed: 6127959, IPC: 0.612183
18675828907647: Event_283: system.switch_cpus1 progress event, total committed:318912681, progress insts committed: 5235660, IPC: 0.523042
18675828907647: Event_282: system.switch_cpus0 progress event, total committed:317273116, progress insts committed: 5285851, IPC: 0.528057
18679162240980: Event_282: system.switch_cpus0 progress event, total committed:320698175, progress insts committed: 3425059, IPC: 0.342163
18679162240980: Event_283: system.switch_cpus1 progress event, total committed:320758582, progress insts committed: 1845901, IPC: 0.184406
18679162240980: Event_284: system.switch_cpus2 progress event, total committed:320656573, progress insts committed: 4547005, IPC: 0.454246
18679162240980: Event_285: system.switch_cpus3 progress event, total committed:320780032, progress insts committed: 1242277, IPC: 0.124103
18682495574313: Event_285: system.switch_cpus3 progress event, total committed:320944071, progress insts committed: 164039, IPC: 0.0163875
18682495574313: Event_284: system.switch_cpus2 progress event, total committed:320813705, progress insts committed: 157132, IPC: 0.0156975
18682495574313: Event_283: system.switch_cpus1 progress event, total committed:320917839, progress insts committed: 159257, IPC: 0.0159098
18682495574313: Event_282: system.switch_cpus0 progress event, total committed:320855000, progress insts committed: 156825, IPC: 0.0156668
18685828907646: Event_282: system.switch_cpus0 progress event, total committed:321019120, progress insts committed: 164120, IPC: 0.0163956
18685828907646: Event_283: system.switch_cpus1 progress event, total committed:321085158, progress insts committed: 167319, IPC: 0.0167152
18685828907646: Event_284: system.switch_cpus2 progress event, total committed:320972949, progress insts committed: 159244, IPC: 0.0159085
18685828907646: Event_285: system.switch_cpus3 progress event, total committed:321110826, progress insts committed: 166755, IPC: 0.0166588
18689162240979: Event_285: system.switch_cpus3 progress event, total committed:322496209, progress insts committed: 1385383, IPC: 000.1384
18689162240979: Event_284: system.switch_cpus2 progress event, total committed:321101655, progress insts committed: 128706, IPC: 0.0128577
18689162240979: Event_283: system.switch_cpus1 progress event, total committed:322076799, progress insts committed: 991641, IPC: 0.0990649
18689162240979: Event_282: system.switch_cpus0 progress event, total committed:321146959, progress insts committed: 127839, IPC: 0.0127711
18692495574312: Event_282: system.switch_cpus0 progress event, total committed:322701032, progress insts committed: 1554073, IPC: 0.155252
18692495574312: Event_283: system.switch_cpus1 progress event, total committed:323275063, progress insts committed: 1198264, IPC: 0.119707
18692495574312: Event_284: system.switch_cpus2 progress event, total committed:321949070, progress insts committed: 847415, IPC: 0.0846568
18692495574312: Event_285: system.switch_cpus3 progress event, total committed:323537436, progress insts committed: 1041227, IPC: 0.104019
18695828907645: Event_285: system.switch_cpus3 progress event, total committed:324990261, progress insts committed: 1452825, IPC: 0.145137
18695828907645: Event_284: system.switch_cpus2 progress event, total committed:323191708, progress insts committed: 1242638, IPC: 00.12414
18695828907645: Event_283: system.switch_cpus1 progress event, total committed:324732231, progress insts committed: 1457168, IPC: 0.145571
18695828907645: Event_282: system.switch_cpus0 progress event, total committed:323659804, progress insts committed: 958772, IPC: 0.0957813
18699162240978: Event_282: system.switch_cpus0 progress event, total committed:325219981, progress insts committed: 1560177, IPC: 0.155862
18699162240978: Event_283: system.switch_cpus1 progress event, total committed:325949103, progress insts committed: 1216872, IPC: 0.121566
18699162240978: Event_284: system.switch_cpus2 progress event, total committed:324539181, progress insts committed: 1347473, IPC: 0.134613
18699162240978: Event_285: system.switch_cpus3 progress event, total committed:326141355, progress insts committed: 1151094, IPC: 0.114994
18702495574311: Event_285: system.switch_cpus3 progress event, total committed:327629094, progress insts committed: 1487739, IPC: 0.148625
18702495574311: Event_284: system.switch_cpus2 progress event, total committed:325947455, progress insts committed: 1408274, IPC: 0.140687
18702495574311: Event_283: system.switch_cpus1 progress event, total committed:327607017, progress insts committed: 1657914, IPC: 0.165626
18702495574311: Event_282: system.switch_cpus0 progress event, total committed:326776543, progress insts committed: 1556562, IPC: 0.155501
18705828907644: Event_282: system.switch_cpus0 progress event, total committed:328322871, progress insts committed: 1546328, IPC: 0.154478
18705828907644: Event_283: system.switch_cpus1 progress event, total committed:329479208, progress insts committed: 1872191, IPC: 0.187032
18705828907644: Event_284: system.switch_cpus2 progress event, total committed:327629325, progress insts committed: 1681870, IPC: 0.168019
18705828907644: Event_285: system.switch_cpus3 progress event, total committed:329569074, progress insts committed: 1939980, IPC: 0.193804
18709162240977: Event_285: system.switch_cpus3 progress event, total committed:333741421, progress insts committed: 4172347, IPC: 0.416817
18709162240977: Event_284: system.switch_cpus2 progress event, total committed:329960285, progress insts committed: 2330960, IPC: 0.232863
18709162240977: Event_283: system.switch_cpus1 progress event, total committed:333552741, progress insts committed: 4073533, IPC: 0.406946
18709162240977: Event_282: system.switch_cpus0 progress event, total committed:330758927, progress insts committed: 2436056, IPC: 0.243362
18712495574310: Event_282: system.switch_cpus0 progress event, total committed:336501727, progress insts committed: 5742800, IPC: 0.573706
18712495574310: Event_283: system.switch_cpus1 progress event, total committed:337558899, progress insts committed: 4006158, IPC: 0.400215
18712495574310: Event_284: system.switch_cpus2 progress event, total committed:335243081, progress insts committed: 5282796, IPC: 0.527751
18712495574310: Event_285: system.switch_cpus3 progress event, total committed:337720701, progress insts committed: 3979280, IPC: 00.39753
18715828907643: Event_285: system.switch_cpus3 progress event, total committed:341575622, progress insts committed: 3854921, IPC: 0.385107
18715828907643: Event_284: system.switch_cpus2 progress event, total committed:338178106, progress insts committed: 2935025, IPC: 0.293209
18715828907643: Event_283: system.switch_cpus1 progress event, total committed:340636966, progress insts committed: 3078067, IPC: 0.307499
18715828907643: Event_282: system.switch_cpus0 progress event, total committed:338987727, progress insts committed: 2486000, IPC: 0.248351
18719162240976: Event_282: system.switch_cpus0 progress event, total committed:344070981, progress insts committed: 5083254, IPC: 0.507817
18719162240976: Event_283: system.switch_cpus1 progress event, total committed:345119691, progress insts committed: 4482725, IPC: 0.447824
18719162240976: Event_284: system.switch_cpus2 progress event, total committed:342594628, progress insts committed: 4416522, IPC: 0.441211
18719162240976: Event_285: system.switch_cpus3 progress event, total committed:345379016, progress insts committed: 3803394, IPC: 0.379959
18722495574309: Event_285: system.switch_cpus3 progress event, total committed:349208278, progress insts committed: 3829262, IPC: 0.382543
18722495574309: Event_284: system.switch_cpus2 progress event, total committed:345761479, progress insts committed: 3166851, IPC: 0.316368
18722495574309: Event_283: system.switch_cpus1 progress event, total committed:348032126, progress insts committed: 2912435, IPC: 0.290952
18722495574309: Event_282: system.switch_cpus0 progress event, total committed:346679529, progress insts committed: 2608548, IPC: 0.260594
18725828907642: Event_282: system.switch_cpus0 progress event, total committed:351941941, progress insts committed: 5262412, IPC: 0.525715
18725828907642: Event_283: system.switch_cpus1 progress event, total committed:352882212, progress insts committed: 4850086, IPC: 0.484524
18725828907642: Event_284: system.switch_cpus2 progress event, total committed:350415586, progress insts committed: 4654107, IPC: 0.464945
18725828907642: Event_285: system.switch_cpus3 progress event, total committed:352897960, progress insts committed: 3689682, IPC: 0.368599
18729162240975: Event_285: system.switch_cpus3 progress event, total committed:353092981, progress insts committed: 195021, IPC: 0.0194826
18729162240975: Event_284: system.switch_cpus2 progress event, total committed:352948479, progress insts committed: 2532893, IPC: 0.253036
18729162240975: Event_283: system.switch_cpus1 progress event, total committed:353078881, progress insts committed: 196669, IPC: 0.0196472
18729162240975: Event_282: system.switch_cpus0 progress event, total committed:353006351, progress insts committed: 1064410, IPC: 0.106335
18732495574308: Event_282: system.switch_cpus0 progress event, total committed:353374858, progress insts committed: 368507, IPC: 0.0368138
18732495574308: Event_283: system.switch_cpus1 progress event, total committed:354457110, progress insts committed: 1378229, IPC: 0.137685
18732495574308: Event_284: system.switch_cpus2 progress event, total committed:353075350, progress insts committed: 126871, IPC: 0.0126744
18732495574308: Event_285: system.switch_cpus3 progress event, total committed:354616950, progress insts committed: 1523969, IPC: 0.152245
18735828907641: Event_285: system.switch_cpus3 progress event, total committed:355919873, progress insts committed: 1302923, IPC: 0.130162
18735828907641: Event_284: system.switch_cpus2 progress event, total committed:353982684, progress insts committed: 907334, IPC: 0.0906427
18735828907641: Event_283: system.switch_cpus1 progress event, total committed:355845442, progress insts committed: 1388332, IPC: 0.138694
18735828907641: Event_282: system.switch_cpus0 progress event, total committed:354828613, progress insts committed: 1453755, IPC: 00.14523
18739162240974: Event_282: system.switch_cpus0 progress event, total committed:356444682, progress insts committed: 1616069, IPC: 0.161445
18739162240974: Event_283: system.switch_cpus1 progress event, total committed:357558985, progress insts committed: 1713543, IPC: 0.171183
18739162240974: Event_284: system.switch_cpus2 progress event, total committed:355565753, progress insts committed: 1583069, IPC: 0.158149
18739162240974: Event_285: system.switch_cpus3 progress event, total committed:357602896, progress insts committed: 1683023, IPC: 0.168134
18742495574307: Event_285: system.switch_cpus3 progress event, total committed:361865827, progress insts committed: 4262931, IPC: 0.425867
18742495574307: Event_284: system.switch_cpus2 progress event, total committed:357830469, progress insts committed: 2264716, IPC: 0.226245
18742495574307: Event_283: system.switch_cpus1 progress event, total committed:361810497, progress insts committed: 4251512, IPC: 0.424726
18742495574307: Event_282: system.switch_cpus0 progress event, total committed:360289000, progress insts committed: 3844318, IPC: 0.384047
18745828907640: Event_282: system.switch_cpus0 progress event, total committed:364657456, progress insts committed: 4368456, IPC: 0.436409
18745828907640: Event_283: system.switch_cpus1 progress event, total committed:366081333, progress insts committed: 4270836, IPC: 0.426657
18745828907640: Event_284: system.switch_cpus2 progress event, total committed:362240322, progress insts committed: 4409853, IPC: 0.440544
18745828907640: Event_285: system.switch_cpus3 progress event, total committed:366124948, progress insts committed: 4259121, IPC: 0.425486
18749162240973: Event_285: system.switch_cpus3 progress event, total committed:369730467, progress insts committed: 3605519, IPC: 0.360191
18749162240973: Event_284: system.switch_cpus2 progress event, total committed:366546085, progress insts committed: 4305763, IPC: 0.430146
18749162240973: Event_283: system.switch_cpus1 progress event, total committed:369730758, progress insts committed: 3649425, IPC: 0.364578
18749162240973: Event_282: system.switch_cpus0 progress event, total committed:369110572, progress insts committed: 4453116, IPC: 0.444866
18752495574306: Event_282: system.switch_cpus0 progress event, total committed:369805775, progress insts committed: 695203, IPC: 0.0694508
18752495574306: Event_283: system.switch_cpus1 progress event, total committed:370911968, progress insts committed: 1181210, IPC: 0.118003
18752495574306: Event_284: system.switch_cpus2 progress event, total committed:369729382, progress insts committed: 3183297, IPC: 0.318011
18752495574306: Event_285: system.switch_cpus3 progress event, total committed:370883993, progress insts committed: 1153526, IPC: 0.115237
18755828907639: Event_285: system.switch_cpus3 progress event, total committed:373930619, progress insts committed: 3046626, IPC: 0.304358
18755828907639: Event_284: system.switch_cpus2 progress event, total committed:370464413, progress insts committed: 735031, IPC: 0.0734296
18755828907639: Event_283: system.switch_cpus1 progress event, total committed:374055253, progress insts committed: 3143285, IPC: 0.314014
18755828907639: Event_282: system.switch_cpus0 progress event, total committed:371462450, progress insts committed: 1656675, IPC: 0.165502
18759162240972: Event_282: system.switch_cpus0 progress event, total committed:377627078, progress insts committed: 6164628, IPC: 0.615846
18759162240972: Event_283: system.switch_cpus1 progress event, total committed:380526362, progress insts committed: 6471109, IPC: 0.646464
18759162240972: Event_284: system.switch_cpus2 progress event, total committed:374363575, progress insts committed: 3899162, IPC: 0.389526
18759162240972: Event_285: system.switch_cpus3 progress event, total committed:380852932, progress insts committed: 6922313, IPC: 0.691539
18762495574305: Event_285: system.switch_cpus3 progress event, total committed:405346850, progress insts committed: 24493918, IPC: 02.44694
18762495574305: Event_284: system.switch_cpus2 progress event, total committed:382751726, progress insts committed: 8388151, IPC: 0.837976
18762495574305: Event_283: system.switch_cpus1 progress event, total committed:404815787, progress insts committed: 24289425, IPC: 02.42651
18762495574305: Event_282: system.switch_cpus0 progress event, total committed:390455338, progress insts committed: 12828260, IPC: 01.28154
18765828907638: Event_282: system.switch_cpus0 progress event, total committed:413933874, progress insts committed: 23478536, IPC: 02.34551
18765828907638: Event_283: system.switch_cpus1 progress event, total committed:428149330, progress insts committed: 23333543, IPC: 02.33102
18765828907638: Event_284: system.switch_cpus2 progress event, total committed:408199392, progress insts committed: 25447666, IPC: 02.54222
18765828907638: Event_285: system.switch_cpus3 progress event, total committed:429267634, progress insts committed: 23920784, IPC: 02.38969
Exiting @ tick 18769042239930 because a thread reached the max instruction count
