Command line:
./runscript_pride.sh blender RFM2.BR1.4C 4 2017 --rh_defense --rh_mitigation=RFM --rh_rfm_per_trefi=2 --rh_rfm_blast_radius=1 --rh_rfm_maxacts_per_trefi=79
Global frequency set at 1000000000000 ticks per second
RFM details - rfm_act_threshold: 39, blast_radius: 1, delay_per_rfm: 175000 ps. sample_rate: 0.025000
RH Defense config: RFM, Bus Delay: 0, rfms_per_trefi: 2, rfm_act_threshold: 39, blast_radius: 1,rfm_delay_per_act: 45000 ps.
DRAM config: RowsPerBank: 65536, BanksPerRank: 32, RanksPerChannel: 1
warn: Sockets disabled, not accepting gdb connections
warn: CoherentXBar system.cpu0.mmucache.mmubus has no snooping ports attached!
warn: CoherentXBar system.cpu1.mmucache.mmubus has no snooping ports attached!
warn: CoherentXBar system.cpu2.mmucache.mmubus has no snooping ports attached!
warn: CoherentXBar system.cpu3.mmucache.mmubus has no snooping ports attached!
warn: Checkpoints for file descriptors currently do not work.
warn: Checkpoints for file descriptors currently do not work.
warn: Checkpoints for file descriptors currently do not work.
warn: Checkpoints for file descriptors currently do not work.
gem5 Simulator System.  http://gem5.org
gem5 is copyrighted software; use the --copyright option for details.

gem5 version 20.1.0.5
gem5 compiled Jul 12 2024 12:42:38
gem5 started Jul 17 2024 15:12:01
gem5 executing on a07dda8b130c, pid 90575
command line: /home/user/PrIDE/performance/gem5/build/X86/gem5.opt --outdir=/home/user/PrIDE/performance/gem5/stats/pride_multiprogram_16GBmem_250Mn.SPEC2017.C4/RFM2.BR1.4C/blender /home/user/PrIDE/performance/gem5/configs/example/se_rq_spec_config_multicore.py --redirects /lib64=/home/utils/gcc-6.2.0/lib64 --benchmark=blender --benchmark_stdout=/home/user/PrIDE/performance/gem5/stats/pride_multiprogram_16GBmem_250Mn.SPEC2017.C4/RFM2.BR1.4C/blender/blender.out --benchmark_stderr=/home/user/PrIDE/performance/gem5/stats/pride_multiprogram_16GBmem_250Mn.SPEC2017.C4/RFM2.BR1.4C/blender/blender.err --spec-version=2017 --rh_defense --rh_mitigation=RFM --rh_rfm_per_trefi=2 --rh_rfm_blast_radius=1 --rh_rfm_maxacts_per_trefi=79 --num-cpus=4 --mem-size=16GB --mem-type=DDR5_2400_32x4 --mem-ranks=1 --checkpoint-dir=/home/user/PrIDE/performance/gem5/cpts/multiprogram_16GBmem_25Bn.SPEC2017.C4/blender-1-ref-x86 --checkpoint-restore=25000000000 --at-instruction --cpu-type DerivO3CPU --caches --l2cache --l1d_size=32kB --l1i_size=32kB --l2_size=256kB --l1d_assoc=8 --l1i_assoc=8 --l2_assoc=16 --maxinsts=250000000 --prog-interval=300Hz

info: Standard input is not a terminal, disabling listeners.
Benchmark- 0   blender
Selected benchmark
--> blender
CMD: ['/opt/spec2017/benchspec/CPU/526.blender_r/run/run_base_refrate_gem5_se-m64.0000/blender_r_base.gem5_se-m64', '/opt/spec2017/benchspec/CPU/526.blender_r/run/run_base_refrate_gem5_se-m64.0000/sh3_no_char.blend', '--render-output', 'sh3_no_char_', '--threads', '1', '-b', '-F', 'RAWTGA', '-s', '849', '-e', '849', '-a']
CWD: /opt/spec2017/benchspec/CPU/526.blender_r/run/run_base_refrate_gem5_se-m64.0000/
Process stdout file: /home/user/PrIDE/performance/gem5/stats/pride_multiprogram_16GBmem_250Mn.SPEC2017.C4/RFM2.BR1.4C/blender/blender.out_0
Process stderr file: /home/user/PrIDE/performance/gem5/stats/pride_multiprogram_16GBmem_250Mn.SPEC2017.C4/RFM2.BR1.4C/blender/blender.err_0
Benchmark- 1   blender
Selected benchmark
--> blender
CMD: ['/opt/spec2017/benchspec/CPU/526.blender_r/run/run_base_refrate_gem5_se-m64.0000/blender_r_base.gem5_se-m64', '/opt/spec2017/benchspec/CPU/526.blender_r/run/run_base_refrate_gem5_se-m64.0000/sh3_no_char.blend', '--render-output', 'sh3_no_char_', '--threads', '1', '-b', '-F', 'RAWTGA', '-s', '849', '-e', '849', '-a']
CWD: /opt/spec2017/benchspec/CPU/526.blender_r/run/run_base_refrate_gem5_se-m64.0000/
Process stdout file: /home/user/PrIDE/performance/gem5/stats/pride_multiprogram_16GBmem_250Mn.SPEC2017.C4/RFM2.BR1.4C/blender/blender.out_1
Process stderr file: /home/user/PrIDE/performance/gem5/stats/pride_multiprogram_16GBmem_250Mn.SPEC2017.C4/RFM2.BR1.4C/blender/blender.err_1
Benchmark- 2   blender
Selected benchmark
--> blender
CMD: ['/opt/spec2017/benchspec/CPU/526.blender_r/run/run_base_refrate_gem5_se-m64.0000/blender_r_base.gem5_se-m64', '/opt/spec2017/benchspec/CPU/526.blender_r/run/run_base_refrate_gem5_se-m64.0000/sh3_no_char.blend', '--render-output', 'sh3_no_char_', '--threads', '1', '-b', '-F', 'RAWTGA', '-s', '849', '-e', '849', '-a']
CWD: /opt/spec2017/benchspec/CPU/526.blender_r/run/run_base_refrate_gem5_se-m64.0000/
Process stdout file: /home/user/PrIDE/performance/gem5/stats/pride_multiprogram_16GBmem_250Mn.SPEC2017.C4/RFM2.BR1.4C/blender/blender.out_2
Process stderr file: /home/user/PrIDE/performance/gem5/stats/pride_multiprogram_16GBmem_250Mn.SPEC2017.C4/RFM2.BR1.4C/blender/blender.err_2
Benchmark- 3   blender
Selected benchmark
--> blender
CMD: ['/opt/spec2017/benchspec/CPU/526.blender_r/run/run_base_refrate_gem5_se-m64.0000/blender_r_base.gem5_se-m64', '/opt/spec2017/benchspec/CPU/526.blender_r/run/run_base_refrate_gem5_se-m64.0000/sh3_no_char.blend', '--render-output', 'sh3_no_char_', '--threads', '1', '-b', '-F', 'RAWTGA', '-s', '849', '-e', '849', '-a']
CWD: /opt/spec2017/benchspec/CPU/526.blender_r/run/run_base_refrate_gem5_se-m64.0000/
Process stdout file: /home/user/PrIDE/performance/gem5/stats/pride_multiprogram_16GBmem_250Mn.SPEC2017.C4/RFM2.BR1.4C/blender/blender.out_3
Process stderr file: /home/user/PrIDE/performance/gem5/stats/pride_multiprogram_16GBmem_250Mn.SPEC2017.C4/RFM2.BR1.4C/blender/blender.err_3
Workload-0: 
['/opt/spec2017/benchspec/CPU/526.blender_r/run/run_base_refrate_gem5_se-m64.0000/blender_r_base.gem5_se-m64', '/opt/spec2017/benchspec/CPU/526.blender_r/run/run_base_refrate_gem5_se-m64.0000/sh3_no_char.blend', '--render-output', 'sh3_no_char_', '--threads', '1', '-b', '-F', 'RAWTGA', '-s', '849', '-e', '849', '-a']
Workload-1: 
['/opt/spec2017/benchspec/CPU/526.blender_r/run/run_base_refrate_gem5_se-m64.0000/blender_r_base.gem5_se-m64', '/opt/spec2017/benchspec/CPU/526.blender_r/run/run_base_refrate_gem5_se-m64.0000/sh3_no_char.blend', '--render-output', 'sh3_no_char_', '--threads', '1', '-b', '-F', 'RAWTGA', '-s', '849', '-e', '849', '-a']
Workload-2: 
['/opt/spec2017/benchspec/CPU/526.blender_r/run/run_base_refrate_gem5_se-m64.0000/blender_r_base.gem5_se-m64', '/opt/spec2017/benchspec/CPU/526.blender_r/run/run_base_refrate_gem5_se-m64.0000/sh3_no_char.blend', '--render-output', 'sh3_no_char_', '--threads', '1', '-b', '-F', 'RAWTGA', '-s', '849', '-e', '849', '-a']
Workload-3: 
['/opt/spec2017/benchspec/CPU/526.blender_r/run/run_base_refrate_gem5_se-m64.0000/blender_r_base.gem5_se-m64', '/opt/spec2017/benchspec/CPU/526.blender_r/run/run_base_refrate_gem5_se-m64.0000/sh3_no_char.blend', '--render-output', 'sh3_no_char_', '--threads', '1', '-b', '-F', 'RAWTGA', '-s', '849', '-e', '849', '-a']
defense_enable:  True  detector:  MG  mitigation:  RFM  threshold:  800
mg_entries:  1700
rfm_maxacts_per_trefi:  79 rfm_per_trefi:  2 rfm_blast_radius:  1
Switch at curTick count:10000
warn: membus.master is deprecated. `master` is now called `mem_side_ports`
warn: No dot file generated. Please install pydot to generate the dot file and pdf.
info: Entering event queue @ 18219162244023.  Starting simulation...
info: Entering event queue @ 18219162254023.  Starting simulation...
warn: PowerState: Already in the requested power state, request ignored
Switched CPUS @ tick 18219162254023
switching cpus
**** REAL SIMULATION ****
info: Entering event queue @ 18219162255012.  Starting simulation...
18222495577356: Event_285: system.switch_cpus3 progress event, total committed:5434951, progress insts committed: 5434951, IPC: 0.542952
18222495577356: Event_284: system.switch_cpus2 progress event, total committed:5458848, progress insts committed: 5458848, IPC: 0.545339
18222495577356: Event_283: system.switch_cpus1 progress event, total committed:5434904, progress insts committed: 5434904, IPC: 0.542947
18222495577356: Event_282: system.switch_cpus0 progress event, total committed:5458939, progress insts committed: 5458939, IPC: 0.545348
18225828910689: Event_282: system.switch_cpus0 progress event, total committed:10932709, progress insts committed: 5473770, IPC: 00.54683
18225828910689: Event_283: system.switch_cpus1 progress event, total committed:10877276, progress insts committed: 5442372, IPC: 0.543693
18225828910689: Event_284: system.switch_cpus2 progress event, total committed:10932732, progress insts committed: 5473884, IPC: 0.546841
18225828910689: Event_285: system.switch_cpus3 progress event, total committed:10877291, progress insts committed: 5442340, IPC: 00.54369
18229162244022: Event_285: system.switch_cpus3 progress event, total committed:16160894, progress insts committed: 5283603, IPC: 0.527832
18229162244022: Event_284: system.switch_cpus2 progress event, total committed:16240049, progress insts committed: 5307317, IPC: 0.530201
18229162244022: Event_283: system.switch_cpus1 progress event, total committed:16160879, progress insts committed: 5283603, IPC: 0.527832
18229162244022: Event_282: system.switch_cpus0 progress event, total committed:16239912, progress insts committed: 5307203, IPC: 00.53019
18232495577355: Event_282: system.switch_cpus0 progress event, total committed:21522528, progress insts committed: 5282616, IPC: 0.527733
18232495577355: Event_283: system.switch_cpus1 progress event, total committed:21419969, progress insts committed: 5259090, IPC: 0.525383
18232495577355: Event_284: system.switch_cpus2 progress event, total committed:21522462, progress insts committed: 5282413, IPC: 0.527713
18232495577355: Event_285: system.switch_cpus3 progress event, total committed:21420388, progress insts committed: 5259494, IPC: 0.525423
18235828910688: Event_285: system.switch_cpus3 progress event, total committed:26764955, progress insts committed: 5344567, IPC: 0.533922
18235828910688: Event_284: system.switch_cpus2 progress event, total committed:26896148, progress insts committed: 5373686, IPC: 0.536831
18235828910688: Event_283: system.switch_cpus1 progress event, total committed:26764940, progress insts committed: 5344971, IPC: 0.533963
18235828910688: Event_282: system.switch_cpus0 progress event, total committed:26896155, progress insts committed: 5373627, IPC: 0.536825
18239162244021: Event_282: system.switch_cpus0 progress event, total committed:32333379, progress insts committed: 5437224, IPC: 0.543179
18239162244021: Event_283: system.switch_cpus1 progress event, total committed:32179115, progress insts committed: 5414175, IPC: 0.540876
18239162244021: Event_284: system.switch_cpus2 progress event, total committed:32333362, progress insts committed: 5437214, IPC: 0.543178
18239162244021: Event_285: system.switch_cpus3 progress event, total committed:32179130, progress insts committed: 5414175, IPC: 0.540876
18242495577354: Event_285: system.switch_cpus3 progress event, total committed:37753478, progress insts committed: 5574348, IPC: 0.556877
18242495577354: Event_284: system.switch_cpus2 progress event, total committed:37940519, progress insts committed: 5607157, IPC: 0.560155
18242495577354: Event_283: system.switch_cpus1 progress event, total committed:37753573, progress insts committed: 5574458, IPC: 0.556888
18242495577354: Event_282: system.switch_cpus0 progress event, total committed:37940476, progress insts committed: 5607097, IPC: 0.560149
18245828910687: Event_282: system.switch_cpus0 progress event, total committed:42248896, progress insts committed: 4308420, IPC: 0.430411
18245828910687: Event_283: system.switch_cpus1 progress event, total committed:42103686, progress insts committed: 4350113, IPC: 0.434576
18245828910687: Event_284: system.switch_cpus2 progress event, total committed:42249061, progress insts committed: 4308542, IPC: 0.430423
18245828910687: Event_285: system.switch_cpus3 progress event, total committed:42110081, progress insts committed: 4356603, IPC: 0.435225
18249162244020: Event_285: system.switch_cpus3 progress event, total committed:44581396, progress insts committed: 2471315, IPC: 0.246884
18249162244020: Event_284: system.switch_cpus2 progress event, total committed:44712511, progress insts committed: 2463450, IPC: 0.246099
18249162244020: Event_283: system.switch_cpus1 progress event, total committed:44572577, progress insts committed: 2468891, IPC: 0.246642
18249162244020: Event_282: system.switch_cpus0 progress event, total committed:44687761, progress insts committed: 2438865, IPC: 0.243643
18252495577353: Event_282: system.switch_cpus0 progress event, total committed:47158031, progress insts committed: 2470270, IPC: 00.24678
18252495577353: Event_283: system.switch_cpus1 progress event, total committed:47053686, progress insts committed: 2481109, IPC: 0.247863
18252495577353: Event_284: system.switch_cpus2 progress event, total committed:47195871, progress insts committed: 2483360, IPC: 0.248088
18252495577353: Event_285: system.switch_cpus3 progress event, total committed:47042481, progress insts committed: 2461085, IPC: 0.245862
18255828910686: Event_285: system.switch_cpus3 progress event, total committed:49502191, progress insts committed: 2459710, IPC: 0.245725
18255828910686: Event_284: system.switch_cpus2 progress event, total committed:49630831, progress insts committed: 2434960, IPC: 0.243253
18255828910686: Event_283: system.switch_cpus1 progress event, total committed:49500086, progress insts committed: 2446400, IPC: 0.244395
18255828910686: Event_282: system.switch_cpus0 progress event, total committed:49634567, progress insts committed: 2476536, IPC: 0.247406
18259162244019: Event_282: system.switch_cpus0 progress event, total committed:52081462, progress insts committed: 2446895, IPC: 0.244445
18259162244019: Event_283: system.switch_cpus1 progress event, total committed:51924592, progress insts committed: 2424506, IPC: 0.242208
18259162244019: Event_284: system.switch_cpus2 progress event, total committed:52048847, progress insts committed: 2418016, IPC: 00.24156
18259162244019: Event_285: system.switch_cpus3 progress event, total committed:51984836, progress insts committed: 2482645, IPC: 0.248016
18262495577352: Event_285: system.switch_cpus3 progress event, total committed:54429311, progress insts committed: 2444475, IPC: 0.244203
18262495577352: Event_284: system.switch_cpus2 progress event, total committed:54496017, progress insts committed: 2447170, IPC: 0.244472
18262495577352: Event_283: system.switch_cpus1 progress event, total committed:54316322, progress insts committed: 2391730, IPC: 0.238934
18262495577352: Event_282: system.switch_cpus0 progress event, total committed:54519231, progress insts committed: 2437769, IPC: 0.243533
18265828910685: Event_282: system.switch_cpus0 progress event, total committed:56920252, progress insts committed: 2401021, IPC: 0.239862
18265828910685: Event_283: system.switch_cpus1 progress event, total committed:56675337, progress insts committed: 2359015, IPC: 0.235666
18265828910685: Event_284: system.switch_cpus2 progress event, total committed:56895781, progress insts committed: 2399764, IPC: 0.239736
18265828910685: Event_285: system.switch_cpus3 progress event, total committed:56834736, progress insts committed: 2405425, IPC: 0.240302
18269162244018: Event_285: system.switch_cpus3 progress event, total committed:59312431, progress insts committed: 2477695, IPC: 0.247522
18269162244018: Event_284: system.switch_cpus2 progress event, total committed:59367426, progress insts committed: 2471645, IPC: 0.246917
18269162244018: Event_283: system.switch_cpus1 progress event, total committed:59117331, progress insts committed: 2441994, IPC: 0.243955
18269162244018: Event_282: system.switch_cpus0 progress event, total committed:59395142, progress insts committed: 2474890, IPC: 0.247242
18272495577351: Event_282: system.switch_cpus0 progress event, total committed:61778677, progress insts committed: 2383535, IPC: 0.238115
18272495577351: Event_283: system.switch_cpus1 progress event, total committed:61513571, progress insts committed: 2396240, IPC: 0.239384
18272495577351: Event_284: system.switch_cpus2 progress event, total committed:61750961, progress insts committed: 2383535, IPC: 0.238115
18272495577351: Event_285: system.switch_cpus3 progress event, total committed:61692831, progress insts committed: 2380400, IPC: 0.237802
18275828910684: Event_285: system.switch_cpus3 progress event, total committed:64059041, progress insts committed: 2366210, IPC: 0.236384
18275828910684: Event_284: system.switch_cpus2 progress event, total committed:64160016, progress insts committed: 2409055, IPC: 0.240665
18275828910684: Event_283: system.switch_cpus1 progress event, total committed:63894352, progress insts committed: 2380781, IPC: 00.23784
18275828910684: Event_282: system.switch_cpus0 progress event, total committed:64180256, progress insts committed: 2401579, IPC: 0.239918
18279162244017: Event_282: system.switch_cpus0 progress event, total committed:66568407, progress insts committed: 2388151, IPC: 0.238576
18279162244017: Event_283: system.switch_cpus1 progress event, total committed:66298145, progress insts committed: 2403793, IPC: 0.240139
18279162244017: Event_284: system.switch_cpus2 progress event, total committed:66531011, progress insts committed: 2370995, IPC: 0.236862
18279162244017: Event_285: system.switch_cpus3 progress event, total committed:66473376, progress insts committed: 2414335, IPC: 0.241192
18282495577350: Event_285: system.switch_cpus3 progress event, total committed:68889141, progress insts committed: 2415765, IPC: 0.241335
18282495577350: Event_284: system.switch_cpus2 progress event, total committed:68970976, progress insts committed: 2439965, IPC: 0.243753
18282495577350: Event_283: system.switch_cpus1 progress event, total committed:68661811, progress insts committed: 2363666, IPC: 00.23613
18282495577350: Event_282: system.switch_cpus0 progress event, total committed:69015361, progress insts committed: 2446954, IPC: 0.244451
18285828910683: Event_282: system.switch_cpus0 progress event, total committed:71489922, progress insts committed: 2474561, IPC: 0.247209
18285828910683: Event_283: system.switch_cpus1 progress event, total committed:71095074, progress insts committed: 2433263, IPC: 0.243083
18285828910683: Event_284: system.switch_cpus2 progress event, total committed:71436021, progress insts committed: 2465045, IPC: 0.246258
18285828910683: Event_285: system.switch_cpus3 progress event, total committed:71313537, progress insts committed: 2424396, IPC: 0.242197
18289162244016: Event_285: system.switch_cpus3 progress event, total committed:73685361, progress insts committed: 2371824, IPC: 0.236945
18289162244016: Event_284: system.switch_cpus2 progress event, total committed:73829071, progress insts committed: 2393050, IPC: 0.239066
18289162244016: Event_283: system.switch_cpus1 progress event, total committed:73466116, progress insts committed: 2371042, IPC: 0.236867
18289162244016: Event_282: system.switch_cpus0 progress event, total committed:73913056, progress insts committed: 2423134, IPC: 0.242071
18292495577349: Event_282: system.switch_cpus0 progress event, total committed:76330911, progress insts committed: 2417855, IPC: 0.241544
18292495577349: Event_283: system.switch_cpus1 progress event, total committed:75880451, progress insts committed: 2414335, IPC: 0.241192
18292495577349: Event_284: system.switch_cpus2 progress event, total committed:76197536, progress insts committed: 2368465, IPC: 00.23661
18292495577349: Event_285: system.switch_cpus3 progress event, total committed:76093426, progress insts committed: 2408065, IPC: 0.240566
18295828910682: Event_285: system.switch_cpus3 progress event, total committed:78543841, progress insts committed: 2450415, IPC: 0.244796
18295828910682: Event_284: system.switch_cpus2 progress event, total committed:78628481, progress insts committed: 2430945, IPC: 0.242851
18295828910682: Event_283: system.switch_cpus1 progress event, total committed:78341498, progress insts committed: 2461047, IPC: 0.245859
18295828910682: Event_282: system.switch_cpus0 progress event, total committed:78802336, progress insts committed: 2471425, IPC: 0.246895
18299162244015: Event_282: system.switch_cpus0 progress event, total committed:84928888, progress insts committed: 6126552, IPC: 0.612043
18299162244015: Event_283: system.switch_cpus1 progress event, total committed:84124331, progress insts committed: 5782833, IPC: 0.577705
18299162244015: Event_284: system.switch_cpus2 progress event, total committed:84628198, progress insts committed: 5999717, IPC: 0.599372
18299162244015: Event_285: system.switch_cpus3 progress event, total committed:84450489, progress insts committed: 5906648, IPC: 0.590074
18302495577348: Event_285: system.switch_cpus3 progress event, total committed:89935892, progress insts committed: 5485403, IPC: 0.547992
18302495577348: Event_284: system.switch_cpus2 progress event, total committed:90158611, progress insts committed: 5530413, IPC: 0.552488
18302495577348: Event_283: system.switch_cpus1 progress event, total committed:89644859, progress insts committed: 5520528, IPC: 0.551501
18302495577348: Event_282: system.switch_cpus0 progress event, total committed:90483690, progress insts committed: 5554802, IPC: 0.554925
18305828910681: Event_282: system.switch_cpus0 progress event, total committed:96059974, progress insts committed: 5576284, IPC: 0.557071
18305828910681: Event_283: system.switch_cpus1 progress event, total committed:95205933, progress insts committed: 5561074, IPC: 0.555551
18305828910681: Event_284: system.switch_cpus2 progress event, total committed:95754253, progress insts committed: 5595642, IPC: 0.559005
18305828910681: Event_285: system.switch_cpus3 progress event, total committed:95511722, progress insts committed: 5575830, IPC: 0.557025
18309162244014: Event_285: system.switch_cpus3 progress event, total committed:101081762, progress insts committed: 5570040, IPC: 0.556447
18309162244014: Event_284: system.switch_cpus2 progress event, total committed:101369178, progress insts committed: 5614925, IPC: 0.560931
18309162244014: Event_283: system.switch_cpus1 progress event, total committed:100769331, progress insts committed: 5563398, IPC: 0.555783
18309162244014: Event_282: system.switch_cpus0 progress event, total committed:101657173, progress insts committed: 5597199, IPC: 00.55916
18312495577347: Event_282: system.switch_cpus0 progress event, total committed:107043604, progress insts committed: 5386431, IPC: 0.538104
18312495577347: Event_283: system.switch_cpus1 progress event, total committed:106133879, progress insts committed: 5364548, IPC: 0.535918
18312495577347: Event_284: system.switch_cpus2 progress event, total committed:106754387, progress insts committed: 5385209, IPC: 0.537982
18312495577347: Event_285: system.switch_cpus3 progress event, total committed:106440213, progress insts committed: 5358451, IPC: 0.535309
18315828910680: Event_285: system.switch_cpus3 progress event, total committed:111833184, progress insts committed: 5392971, IPC: 0.538758
18315828910680: Event_284: system.switch_cpus2 progress event, total committed:112184917, progress insts committed: 5430530, IPC: 00.54251
18315828910680: Event_283: system.switch_cpus1 progress event, total committed:111525277, progress insts committed: 5391398, IPC: 0.538601
18315828910680: Event_282: system.switch_cpus0 progress event, total committed:112473971, progress insts committed: 5430367, IPC: 0.542494
18319162244013: Event_282: system.switch_cpus0 progress event, total committed:117945008, progress insts committed: 5471037, IPC: 0.546557
18319162244013: Event_283: system.switch_cpus1 progress event, total committed:116976541, progress insts committed: 5451264, IPC: 0.544581
18319162244013: Event_284: system.switch_cpus2 progress event, total committed:117636947, progress insts committed: 5452030, IPC: 0.544658
18319162244013: Event_285: system.switch_cpus3 progress event, total committed:117274732, progress insts committed: 5441548, IPC: 0.543611
18322495577346: Event_285: system.switch_cpus3 progress event, total committed:120374579, progress insts committed: 3099847, IPC: 0.309675
18322495577346: Event_284: system.switch_cpus2 progress event, total committed:120389244, progress insts committed: 2752297, IPC: 0.274954
18322495577346: Event_283: system.switch_cpus1 progress event, total committed:120362549, progress insts committed: 3386008, IPC: 0.338262
18322495577346: Event_282: system.switch_cpus0 progress event, total committed:120400626, progress insts committed: 2455618, IPC: 0.245316
18325828910679: Event_282: system.switch_cpus0 progress event, total committed:120557757, progress insts committed: 157131, IPC: 0.0156974
18325828910679: Event_283: system.switch_cpus1 progress event, total committed:120519068, progress insts committed: 156519, IPC: 0.0156362
18325828910679: Event_284: system.switch_cpus2 progress event, total committed:120545334, progress insts committed: 156090, IPC: 0.0155934
18325828910679: Event_285: system.switch_cpus3 progress event, total committed:120529376, progress insts committed: 154797, IPC: 0.0154642
18329162244012: Event_285: system.switch_cpus3 progress event, total committed:120680744, progress insts committed: 151368, IPC: 0.0151217
18329162244012: Event_284: system.switch_cpus2 progress event, total committed:120699777, progress insts committed: 154443, IPC: 0.0154289
18329162244012: Event_283: system.switch_cpus1 progress event, total committed:120669137, progress insts committed: 150069, IPC: 0.0149919
18329162244012: Event_282: system.switch_cpus0 progress event, total committed:120711525, progress insts committed: 153768, IPC: 0.0153614
18332495577345: Event_282: system.switch_cpus0 progress event, total committed:120865299, progress insts committed: 153774, IPC: 0.015362
18332495577345: Event_283: system.switch_cpus1 progress event, total committed:120821498, progress insts committed: 152361, IPC: 0.0152209
18332495577345: Event_284: system.switch_cpus2 progress event, total committed:120853392, progress insts committed: 153615, IPC: 0.0153461
18332495577345: Event_285: system.switch_cpus3 progress event, total committed:120832184, progress insts committed: 151440, IPC: 0.0151289
18335828910678: Event_285: system.switch_cpus3 progress event, total committed:120987209, progress insts committed: 155025, IPC: 0.015487
18335828910678: Event_284: system.switch_cpus2 progress event, total committed:121008891, progress insts committed: 155499, IPC: 0.0155344
18335828910678: Event_283: system.switch_cpus1 progress event, total committed:120974735, progress insts committed: 153237, IPC: 0.0153084
18335828910678: Event_282: system.switch_cpus0 progress event, total committed:121019673, progress insts committed: 154374, IPC: 0.015422
18339162244011: Event_282: system.switch_cpus0 progress event, total committed:121171132, progress insts committed: 151459, IPC: 0.0151308
18339162244011: Event_283: system.switch_cpus1 progress event, total committed:121125497, progress insts committed: 150762, IPC: 0.0150611
18339162244011: Event_284: system.switch_cpus2 progress event, total committed:121159461, progress insts committed: 150570, IPC: 0.0150419
18339162244011: Event_285: system.switch_cpus3 progress event, total committed:121136705, progress insts committed: 149496, IPC: 0.0149347
18342495577344: Event_285: system.switch_cpus3 progress event, total committed:121285400, progress insts committed: 148695, IPC: 0.0148546
18342495577344: Event_284: system.switch_cpus2 progress event, total committed:121313047, progress insts committed: 153586, IPC: 0.0153432
18342495577344: Event_283: system.switch_cpus1 progress event, total committed:121275101, progress insts committed: 149604, IPC: 0.0149454
18342495577344: Event_282: system.switch_cpus0 progress event, total committed:121324213, progress insts committed: 153081, IPC: 0.0152928
18345828910677: Event_282: system.switch_cpus0 progress event, total committed:121488040, progress insts committed: 163827, IPC: 0.0163663
18345828910677: Event_283: system.switch_cpus1 progress event, total committed:121432362, progress insts committed: 157261, IPC: 0.0157104
18345828910677: Event_284: system.switch_cpus2 progress event, total committed:121476553, progress insts committed: 163506, IPC: 0.0163342
18345828910677: Event_285: system.switch_cpus3 progress event, total committed:121444797, progress insts committed: 159397, IPC: 0.0159238
18349162244010: Event_285: system.switch_cpus3 progress event, total committed:121608309, progress insts committed: 163512, IPC: 0.0163348
18349162244010: Event_284: system.switch_cpus2 progress event, total committed:121642156, progress insts committed: 165603, IPC: 0.0165437
18349162244010: Event_283: system.switch_cpus1 progress event, total committed:121594080, progress insts committed: 161718, IPC: 0.0161556
18349162244010: Event_282: system.switch_cpus0 progress event, total committed:121654252, progress insts committed: 166212, IPC: 0.0166046
18352495577343: Event_282: system.switch_cpus0 progress event, total committed:121820785, progress insts committed: 166533, IPC: 0.0166366
18352495577343: Event_283: system.switch_cpus1 progress event, total committed:121757229, progress insts committed: 163149, IPC: 0.0162986
18352495577343: Event_284: system.switch_cpus2 progress event, total committed:121807798, progress insts committed: 165642, IPC: 0.0165476
18352495577343: Event_285: system.switch_cpus3 progress event, total committed:121770822, progress insts committed: 162513, IPC: 0.016235
18355828910676: Event_285: system.switch_cpus3 progress event, total committed:121933971, progress insts committed: 163149, IPC: 0.0162986
18355828910676: Event_284: system.switch_cpus2 progress event, total committed:121974883, progress insts committed: 167085, IPC: 0.0166918
18355828910676: Event_283: system.switch_cpus1 progress event, total committed:121920777, progress insts committed: 163548, IPC: 0.0163384
18355828910676: Event_282: system.switch_cpus0 progress event, total committed:121986748, progress insts committed: 165963, IPC: 0.0165797
18359162244009: Event_282: system.switch_cpus0 progress event, total committed:122152258, progress insts committed: 165510, IPC: 0.0165344
18359162244009: Event_283: system.switch_cpus1 progress event, total committed:122083095, progress insts committed: 162318, IPC: 0.0162156
18359162244009: Event_284: system.switch_cpus2 progress event, total committed:122139838, progress insts committed: 164955, IPC: 0.016479
18359162244009: Event_285: system.switch_cpus3 progress event, total committed:122095902, progress insts committed: 161931, IPC: 0.0161769
18362495577342: Event_285: system.switch_cpus3 progress event, total committed:122257863, progress insts committed: 161961, IPC: 0.0161799
18362495577342: Event_284: system.switch_cpus2 progress event, total committed:122303734, progress insts committed: 163896, IPC: 0.0163732
18362495577342: Event_283: system.switch_cpus1 progress event, total committed:122245743, progress insts committed: 162648, IPC: 0.0162485
18362495577342: Event_282: system.switch_cpus0 progress event, total committed:122315374, progress insts committed: 163116, IPC: 0.0162953
18365828910675: Event_282: system.switch_cpus0 progress event, total committed:122482177, progress insts committed: 166803, IPC: 0.0166636
18365828910675: Event_283: system.switch_cpus1 progress event, total committed:122408706, progress insts committed: 162963, IPC: 00.01628
18365828910675: Event_284: system.switch_cpus2 progress event, total committed:122469469, progress insts committed: 165735, IPC: 0.0165569
18365828910675: Event_285: system.switch_cpus3 progress event, total committed:122421903, progress insts committed: 164040, IPC: 0.0163876
18369162244008: Event_285: system.switch_cpus3 progress event, total committed:122583774, progress insts committed: 161871, IPC: 0.0161709
18369162244008: Event_284: system.switch_cpus2 progress event, total committed:122636047, progress insts committed: 166578, IPC: 0.0166411
18369162244008: Event_283: system.switch_cpus1 progress event, total committed:122572662, progress insts committed: 163956, IPC: 0.0163792
18369162244008: Event_282: system.switch_cpus0 progress event, total committed:122648107, progress insts committed: 165930, IPC: 0.0165764
18372495577341: Event_282: system.switch_cpus0 progress event, total committed:122815441, progress insts committed: 167334, IPC: 0.0167167
18372495577341: Event_283: system.switch_cpus1 progress event, total committed:122736648, progress insts committed: 163986, IPC: 0.0163822
18372495577341: Event_284: system.switch_cpus2 progress event, total committed:122803267, progress insts committed: 167220, IPC: 0.0167053
18372495577341: Event_285: system.switch_cpus3 progress event, total committed:122750046, progress insts committed: 166272, IPC: 0.0166106
18375828910674: Event_285: system.switch_cpus3 progress event, total committed:122913951, progress insts committed: 163905, IPC: 0.0163741
18375828910674: Event_284: system.switch_cpus2 progress event, total committed:122970628, progress insts committed: 167361, IPC: 0.0167194
18375828910674: Event_283: system.switch_cpus1 progress event, total committed:122901981, progress insts committed: 165333, IPC: 0.0165168
18375828910674: Event_282: system.switch_cpus0 progress event, total committed:122982694, progress insts committed: 167253, IPC: 0.0167086
18379162244007: Event_282: system.switch_cpus0 progress event, total committed:123152647, progress insts committed: 169953, IPC: 0.0169783
18379162244007: Event_283: system.switch_cpus1 progress event, total committed:123066627, progress insts committed: 164646, IPC: 0.0164481
18379162244007: Event_284: system.switch_cpus2 progress event, total committed:123139522, progress insts committed: 168894, IPC: 0.0168725
18379162244007: Event_285: system.switch_cpus3 progress event, total committed:123079200, progress insts committed: 165249, IPC: 0.0165084
18382495577340: Event_285: system.switch_cpus3 progress event, total committed:123240693, progress insts committed: 161493, IPC: 0.0161332
18382495577340: Event_284: system.switch_cpus2 progress event, total committed:123300475, progress insts committed: 160953, IPC: 0.0160792
18382495577340: Event_283: system.switch_cpus1 progress event, total committed:123231363, progress insts committed: 164736, IPC: 0.0164571
18382495577340: Event_282: system.switch_cpus0 progress event, total committed:123384378, progress insts committed: 231731, IPC: 0.0231499
18385828910673: Event_282: system.switch_cpus0 progress event, total committed:124894488, progress insts committed: 1510110, IPC: 00.15086
18385828910673: Event_283: system.switch_cpus1 progress event, total committed:123460208, progress insts committed: 228845, IPC: 0.0228616
18385828910673: Event_284: system.switch_cpus2 progress event, total committed:124685433, progress insts committed: 1384958, IPC: 0.138357
18385828910673: Event_285: system.switch_cpus3 progress event, total committed:123657098, progress insts committed: 416405, IPC: 0.0415989
18389162244006: Event_285: system.switch_cpus3 progress event, total committed:124955228, progress insts committed: 1298130, IPC: 0.129683
18389162244006: Event_284: system.switch_cpus2 progress event, total committed:125956578, progress insts committed: 1271145, IPC: 0.126987
18389162244006: Event_283: system.switch_cpus1 progress event, total committed:124757123, progress insts committed: 1296915, IPC: 0.129562
18389162244006: Event_282: system.switch_cpus0 progress event, total committed:126160593, progress insts committed: 1266105, IPC: 0.126484
18392495577339: Event_282: system.switch_cpus0 progress event, total committed:127531698, progress insts committed: 1371105, IPC: 0.136973
18392495577339: Event_283: system.switch_cpus1 progress event, total committed:126090203, progress insts committed: 1333080, IPC: 0.133175
18392495577339: Event_284: system.switch_cpus2 progress event, total committed:127321173, progress insts committed: 1364595, IPC: 0.136323
18392495577339: Event_285: system.switch_cpus3 progress event, total committed:126285337, progress insts committed: 1330109, IPC: 0.132878
18395828910672: Event_285: system.switch_cpus3 progress event, total committed:127648313, progress insts committed: 1362976, IPC: 0.136161
18395828910672: Event_284: system.switch_cpus2 progress event, total committed:128685393, progress insts committed: 1364220, IPC: 0.136286
18395828910672: Event_283: system.switch_cpus1 progress event, total committed:127449922, progress insts committed: 1359719, IPC: 0.135836
18395828910672: Event_282: system.switch_cpus0 progress event, total committed:128895378, progress insts committed: 1363680, IPC: 0.136232
18399162244005: Event_282: system.switch_cpus0 progress event, total committed:130262163, progress insts committed: 1366785, IPC: 0.136542
18399162244005: Event_283: system.switch_cpus1 progress event, total committed:128816003, progress insts committed: 1366081, IPC: 0.136471
18399162244005: Event_284: system.switch_cpus2 progress event, total committed:130051833, progress insts committed: 1366440, IPC: 0.136507
18399162244005: Event_285: system.switch_cpus3 progress event, total committed:129014693, progress insts committed: 1366380, IPC: 0.136501
18402495577338: Event_285: system.switch_cpus3 progress event, total committed:130397378, progress insts committed: 1382685, IPC: 00.13813
18402495577338: Event_284: system.switch_cpus2 progress event, total committed:131393958, progress insts committed: 1342125, IPC: 0.134078
18402495577338: Event_283: system.switch_cpus1 progress event, total committed:130198643, progress insts committed: 1382640, IPC: 0.138126
18402495577338: Event_282: system.switch_cpus0 progress event, total committed:131601753, progress insts committed: 1339590, IPC: 0.133825
18405828910671: Event_282: system.switch_cpus0 progress event, total committed:132978693, progress insts committed: 1376940, IPC: 0.137556
18405828910671: Event_283: system.switch_cpus1 progress event, total committed:131557703, progress insts committed: 1359060, IPC: 00.13577
18405828910671: Event_284: system.switch_cpus2 progress event, total committed:132770178, progress insts committed: 1376220, IPC: 0.137484
18405828910671: Event_285: system.switch_cpus3 progress event, total committed:131753498, progress insts committed: 1356120, IPC: 0.135476
warn: MOVNTDQ: Ignoring non-temporal hint, modeling as cacheable!
18409162244004: Event_285: system.switch_cpus3 progress event, total committed:133373093, progress insts committed: 1619595, IPC: 0.161798
18409162244004: Event_284: system.switch_cpus2 progress event, total committed:133840786, progress insts committed: 1070608, IPC: 0.106954
18409162244004: Event_283: system.switch_cpus1 progress event, total committed:133181963, progress insts committed: 1624260, IPC: 0.162264
18409162244004: Event_282: system.switch_cpus0 progress event, total committed:133886986, progress insts committed: 908293, IPC: 0.0907385
18412495577337: Event_282: system.switch_cpus0 progress event, total committed:134500357, progress insts committed: 613371, IPC: 0.0612758
18412495577337: Event_283: system.switch_cpus1 progress event, total committed:134202753, progress insts committed: 1020790, IPC: 0.101977
18412495577337: Event_284: system.switch_cpus2 progress event, total committed:134454157, progress insts committed: 613371, IPC: 0.0612758
18412495577337: Event_285: system.switch_cpus3 progress event, total committed:134240388, progress insts committed: 867295, IPC: 0.0866428
18415828910670: Event_285: system.switch_cpus3 progress event, total committed:134912796, progress insts committed: 672408, IPC: 0.0671736
18415828910670: Event_284: system.switch_cpus2 progress event, total committed:135126565, progress insts committed: 672408, IPC: 0.0671736
18415828910670: Event_283: system.switch_cpus1 progress event, total committed:134875194, progress insts committed: 672441, IPC: 0.0671769
18415828910670: Event_282: system.switch_cpus0 progress event, total committed:135172765, progress insts committed: 672408, IPC: 0.0671736
18419162244003: Event_282: system.switch_cpus0 progress event, total committed:136423326, progress insts committed: 1250561, IPC: 0.124931
18419162244003: Event_283: system.switch_cpus1 progress event, total committed:135418275, progress insts committed: 543081, IPC: 0.0542538
18419162244003: Event_284: system.switch_cpus2 progress event, total committed:136181871, progress insts committed: 1055306, IPC: 0.105425
18419162244003: Event_285: system.switch_cpus3 progress event, total committed:135455910, progress insts committed: 543114, IPC: 0.0542571
18422495577336: Event_285: system.switch_cpus3 progress event, total committed:136603691, progress insts committed: 1147781, IPC: 0.114663
18422495577336: Event_284: system.switch_cpus2 progress event, total committed:137631696, progress insts committed: 1449825, IPC: 0.144838
18422495577336: Event_283: system.switch_cpus1 progress event, total committed:136425881, progress insts committed: 1007606, IPC: 00.10066
18422495577336: Event_282: system.switch_cpus0 progress event, total committed:137860266, progress insts committed: 1436940, IPC: 00.14355
18425828910669: Event_282: system.switch_cpus0 progress event, total committed:139080066, progress insts committed: 1219800, IPC: 0.121858
18425828910669: Event_283: system.switch_cpus1 progress event, total committed:137689481, progress insts committed: 1263600, IPC: 0.126234
18425828910669: Event_284: system.switch_cpus2 progress event, total committed:138850206, progress insts committed: 1218510, IPC: 0.121729
18425828910669: Event_285: system.switch_cpus3 progress event, total committed:137859056, progress insts committed: 1255365, IPC: 0.125411
18429162244002: Event_285: system.switch_cpus3 progress event, total committed:139030376, progress insts committed: 1171320, IPC: 0.117015
18429162244002: Event_284: system.switch_cpus2 progress event, total committed:140000016, progress insts committed: 1149810, IPC: 0.114866
18429162244002: Event_283: system.switch_cpus1 progress event, total committed:138860201, progress insts committed: 1170720, IPC: 0.116955
18429162244002: Event_282: system.switch_cpus0 progress event, total committed:140223696, progress insts committed: 1143630, IPC: 0.114249
18432495577335: Event_282: system.switch_cpus0 progress event, total committed:141426095, progress insts committed: 1202399, IPC: 00.12012
18432495577335: Event_283: system.switch_cpus1 progress event, total committed:140058521, progress insts committed: 1198320, IPC: 0.119712
18432495577335: Event_284: system.switch_cpus2 progress event, total committed:141199056, progress insts committed: 1199040, IPC: 0.119784
18432495577335: Event_285: system.switch_cpus3 progress event, total committed:140226371, progress insts committed: 1195995, IPC: 00.11948
18435828910668: Event_285: system.switch_cpus3 progress event, total committed:141477896, progress insts committed: 1251525, IPC: 0.125027
18435828910668: Event_284: system.switch_cpus2 progress event, total committed:142502016, progress insts committed: 1302960, IPC: 0.130166
18435828910668: Event_283: system.switch_cpus1 progress event, total committed:141298721, progress insts committed: 1240200, IPC: 0.123896
18435828910668: Event_282: system.switch_cpus0 progress event, total committed:142735086, progress insts committed: 1308991, IPC: 0.130768
18439162244001: Event_282: system.switch_cpus0 progress event, total committed:144045021, progress insts committed: 1309935, IPC: 0.130863
18439162244001: Event_283: system.switch_cpus1 progress event, total committed:142604801, progress insts committed: 1306080, IPC: 0.130477
18439162244001: Event_284: system.switch_cpus2 progress event, total committed:143812296, progress insts committed: 1310280, IPC: 0.130897
18439162244001: Event_285: system.switch_cpus3 progress event, total committed:142785056, progress insts committed: 1307160, IPC: 0.130585
18442495577334: Event_285: system.switch_cpus3 progress event, total committed:144104936, progress insts committed: 1319880, IPC: 0.131856
18442495577334: Event_284: system.switch_cpus2 progress event, total committed:145131936, progress insts committed: 1319640, IPC: 0.131832
18442495577334: Event_283: system.switch_cpus1 progress event, total committed:143926106, progress insts committed: 1321305, IPC: 0.131998
18442495577334: Event_282: system.switch_cpus0 progress event, total committed:145366416, progress insts committed: 1321395, IPC: 0.132007
18445828910667: Event_282: system.switch_cpus0 progress event, total committed:146162131, progress insts committed: 795715, IPC: 0.0794919
18445828910667: Event_283: system.switch_cpus1 progress event, total committed:145650866, progress insts committed: 1724760, IPC: 0.172304
18445828910667: Event_284: system.switch_cpus2 progress event, total committed:146111344, progress insts committed: 979408, IPC: 0.0978429
18445828910667: Event_285: system.switch_cpus3 progress event, total committed:145825376, progress insts committed: 1720440, IPC: 0.171872
18449162244000: Event_285: system.switch_cpus3 progress event, total committed:146454969, progress insts committed: 629593, IPC: 0.0628963
18449162244000: Event_284: system.switch_cpus2 progress event, total committed:146664736, progress insts committed: 553392, IPC: 0.0552839
18449162244000: Event_283: system.switch_cpus1 progress event, total committed:146420181, progress insts committed: 769315, IPC: 0.0768546
18449162244000: Event_282: system.switch_cpus0 progress event, total committed:146715508, progress insts committed: 553377, IPC: 0.0552824
18452495577333: Event_282: system.switch_cpus0 progress event, total committed:147199981, progress insts committed: 484473, IPC: 0.0483989
18452495577333: Event_283: system.switch_cpus1 progress event, total committed:146904654, progress insts committed: 484473, IPC: 0.0483989
18452495577333: Event_284: system.switch_cpus2 progress event, total committed:147149194, progress insts committed: 484458, IPC: 0.0483974
18452495577333: Event_285: system.switch_cpus3 progress event, total committed:146939418, progress insts committed: 484449, IPC: 0.0483965
18455828910666: Event_285: system.switch_cpus3 progress event, total committed:147424155, progress insts committed: 484737, IPC: 0.0484252
18455828910666: Event_284: system.switch_cpus2 progress event, total committed:147633931, progress insts committed: 484737, IPC: 0.0484252
18455828910666: Event_283: system.switch_cpus1 progress event, total committed:147389358, progress insts committed: 484704, IPC: 0.0484219
18455828910666: Event_282: system.switch_cpus0 progress event, total committed:147684685, progress insts committed: 484704, IPC: 0.0484219
18459162243999: Event_282: system.switch_cpus0 progress event, total committed:149478553, progress insts committed: 1793868, IPC: 0.179207
18459162243999: Event_283: system.switch_cpus1 progress event, total committed:147875200, progress insts committed: 485842, IPC: 0.0485356
18459162243999: Event_284: system.switch_cpus2 progress event, total committed:149192097, progress insts committed: 1558166, IPC: 0.155661
18459162243999: Event_285: system.switch_cpus3 progress event, total committed:148059175, progress insts committed: 635020, IPC: 0.0634385
18462495577332: Event_285: system.switch_cpus3 progress event, total committed:149864077, progress insts committed: 1804902, IPC: 00.18031
18462495577332: Event_284: system.switch_cpus2 progress event, total committed:150997095, progress insts committed: 1804998, IPC: 0.180319
18462495577332: Event_283: system.switch_cpus1 progress event, total committed:149680258, progress insts committed: 1805058, IPC: 0.180325
18462495577332: Event_282: system.switch_cpus0 progress event, total committed:151283573, progress insts committed: 1805020, IPC: 0.180321
18465828910665: Event_282: system.switch_cpus0 progress event, total committed:152898994, progress insts committed: 1615421, IPC: 0.161381
18465828910665: Event_283: system.switch_cpus1 progress event, total committed:151433198, progress insts committed: 1752940, IPC: 0.175119
18465828910665: Event_284: system.switch_cpus2 progress event, total committed:152652724, progress insts committed: 1655629, IPC: 0.165397
18465828910665: Event_285: system.switch_cpus3 progress event, total committed:151616995, progress insts committed: 1752918, IPC: 0.175117
18469162243998: Event_285: system.switch_cpus3 progress event, total committed:152934414, progress insts committed: 1317419, IPC: 00.13161
18469162243998: Event_284: system.switch_cpus2 progress event, total committed:153908404, progress insts committed: 1255680, IPC: 0.125442
18469162243998: Event_283: system.switch_cpus1 progress event, total committed:152776269, progress insts committed: 1343071, IPC: 0.134173
18469162243998: Event_282: system.switch_cpus0 progress event, total committed:154154764, progress insts committed: 1255770, IPC: 0.125451
18472495577331: Event_282: system.switch_cpus0 progress event, total committed:155387404, progress insts committed: 1232640, IPC: 0.123141
18472495577331: Event_283: system.switch_cpus1 progress event, total committed:154008909, progress insts committed: 1232640, IPC: 0.123141
18472495577331: Event_284: system.switch_cpus2 progress event, total committed:155141179, progress insts committed: 1232775, IPC: 0.123154
18472495577331: Event_285: system.switch_cpus3 progress event, total committed:154167024, progress insts committed: 1232610, IPC: 0.123138
18475828910664: Event_285: system.switch_cpus3 progress event, total committed:155466444, progress insts committed: 1299420, IPC: 0.129812
18475828910664: Event_284: system.switch_cpus2 progress event, total committed:156440779, progress insts committed: 1299600, IPC: 00.12983
18475828910664: Event_283: system.switch_cpus1 progress event, total committed:155308389, progress insts committed: 1299480, IPC: 0.129818
18475828910664: Event_282: system.switch_cpus0 progress event, total committed:156687124, progress insts committed: 1299720, IPC: 0.129842
18479162243997: Event_282: system.switch_cpus0 progress event, total committed:158006419, progress insts committed: 1319295, IPC: 0.131798
18479162243997: Event_283: system.switch_cpus1 progress event, total committed:156627474, progress insts committed: 1319085, IPC: 0.131777
18479162243997: Event_284: system.switch_cpus2 progress event, total committed:157760194, progress insts committed: 1319415, IPC: 00.13181
18479162243997: Event_285: system.switch_cpus3 progress event, total committed:156785619, progress insts committed: 1319175, IPC: 0.131786
18482495577330: Event_285: system.switch_cpus3 progress event, total committed:158361864, progress insts committed: 1576245, IPC: 0.157467
18482495577330: Event_284: system.switch_cpus2 progress event, total committed:158875868, progress insts committed: 1115674, IPC: 0.111456
18482495577330: Event_283: system.switch_cpus1 progress event, total committed:158203539, progress insts committed: 1576065, IPC: 0.157449
18482495577330: Event_282: system.switch_cpus0 progress event, total committed:158928008, progress insts committed: 921589, IPC: 0.0920667
18485828910663: Event_282: system.switch_cpus0 progress event, total committed:159502178, progress insts committed: 574170, IPC: 0.0573596
18485828910663: Event_283: system.switch_cpus1 progress event, total committed:159225229, progress insts committed: 1021690, IPC: 0.102067
18485828910663: Event_284: system.switch_cpus2 progress event, total committed:159450038, progress insts committed: 574170, IPC: 0.0573596
18485828910663: Event_285: system.switch_cpus3 progress event, total committed:159254311, progress insts committed: 892447, IPC: 0.0891555
18489162243996: Event_285: system.switch_cpus3 progress event, total committed:159864817, progress insts committed: 610506, IPC: 0.0609895
18489162243996: Event_284: system.switch_cpus2 progress event, total committed:160060535, progress insts committed: 610497, IPC: 0.0609887
18489162243996: Event_283: system.switch_cpus1 progress event, total committed:159835729, progress insts committed: 610500, IPC: 0.060989
18489162243996: Event_282: system.switch_cpus0 progress event, total committed:160112675, progress insts committed: 610497, IPC: 0.0609887
18492495577329: Event_282: system.switch_cpus0 progress event, total committed:161141431, progress insts committed: 1028756, IPC: 0.102773
18492495577329: Event_283: system.switch_cpus1 progress event, total committed:160433920, progress insts committed: 598191, IPC: 0.0597593
18492495577329: Event_284: system.switch_cpus2 progress event, total committed:160869126, progress insts committed: 808591, IPC: 0.0807782
18492495577329: Event_285: system.switch_cpus3 progress event, total committed:160462975, progress insts committed: 598158, IPC: 0.059756
18495828910662: Event_285: system.switch_cpus3 progress event, total committed:162346981, progress insts committed: 1884006, IPC: 0.188212
18495828910662: Event_284: system.switch_cpus2 progress event, total committed:163301673, progress insts committed: 2432547, IPC: 0.243011
18495828910662: Event_283: system.switch_cpus1 progress event, total committed:162213929, progress insts committed: 1780009, IPC: 0.177823
18495828910662: Event_282: system.switch_cpus0 progress event, total committed:163593716, progress insts committed: 2452285, IPC: 0.244983
18499162243995: Event_282: system.switch_cpus0 progress event, total committed:166034447, progress insts committed: 2440731, IPC: 0.243829
18499162243995: Event_283: system.switch_cpus1 progress event, total committed:164641818, progress insts committed: 2427889, IPC: 0.242546
18499162243995: Event_284: system.switch_cpus2 progress event, total committed:165699336, progress insts committed: 2397663, IPC: 0.239527
18499162243995: Event_285: system.switch_cpus3 progress event, total committed:164725511, progress insts committed: 2378530, IPC: 0.237615
18502495577328: Event_285: system.switch_cpus3 progress event, total committed:167179992, progress insts committed: 2454481, IPC: 0.245203
18502495577328: Event_284: system.switch_cpus2 progress event, total committed:168143862, progress insts committed: 2444526, IPC: 0.244208
18502495577328: Event_283: system.switch_cpus1 progress event, total committed:167076522, progress insts committed: 2434704, IPC: 0.243227
18502495577328: Event_282: system.switch_cpus0 progress event, total committed:168420677, progress insts committed: 2386230, IPC: 0.238384
18505828910661: Event_282: system.switch_cpus0 progress event, total committed:170895736, progress insts committed: 2475059, IPC: 0.247258
18505828910661: Event_283: system.switch_cpus1 progress event, total committed:169550426, progress insts committed: 2473904, IPC: 0.247143
18505828910661: Event_284: system.switch_cpus2 progress event, total committed:170595872, progress insts committed: 2452010, IPC: 0.244956
18505828910661: Event_285: system.switch_cpus3 progress event, total committed:169643226, progress insts committed: 2463234, IPC: 0.246077
18509162243994: Event_285: system.switch_cpus3 progress event, total committed:172104806, progress insts committed: 2461580, IPC: 0.245912
18509162243994: Event_284: system.switch_cpus2 progress event, total committed:173043148, progress insts committed: 2447276, IPC: 0.244483
18509162243994: Event_283: system.switch_cpus1 progress event, total committed:172018822, progress insts committed: 2468396, IPC: 0.246593
18509162243994: Event_282: system.switch_cpus0 progress event, total committed:173332456, progress insts committed: 2436720, IPC: 0.243428
18512495577327: Event_282: system.switch_cpus0 progress event, total committed:178501327, progress insts committed: 5168871, IPC: 00.51637
18512495577327: Event_283: system.switch_cpus1 progress event, total committed:176249466, progress insts committed: 4230644, IPC: 0.422641
18512495577327: Event_284: system.switch_cpus2 progress event, total committed:177817423, progress insts committed: 4774275, IPC: 00.47695
18512495577327: Event_285: system.switch_cpus3 progress event, total committed:176373812, progress insts committed: 4269006, IPC: 0.426474
18515828910660: Event_285: system.switch_cpus3 progress event, total committed:181948694, progress insts committed: 5574882, IPC: 0.556931
18515828910660: Event_284: system.switch_cpus2 progress event, total committed:183404491, progress insts committed: 5587068, IPC: 0.558148
18515828910660: Event_283: system.switch_cpus1 progress event, total committed:181813227, progress insts committed: 5563761, IPC: 00.55582
18515828910660: Event_282: system.switch_cpus0 progress event, total committed:184092004, progress insts committed: 5590677, IPC: 0.558509
18519162243993: Event_282: system.switch_cpus0 progress event, total committed:189801665, progress insts committed: 5709661, IPC: 0.570395
18519162243993: Event_283: system.switch_cpus1 progress event, total committed:187524052, progress insts committed: 5710825, IPC: 0.570511
18519162243993: Event_284: system.switch_cpus2 progress event, total committed:189116154, progress insts committed: 5711663, IPC: 0.570595
18519162243993: Event_285: system.switch_cpus3 progress event, total committed:187665598, progress insts committed: 5716904, IPC: 0.571119
18522495577326: Event_285: system.switch_cpus3 progress event, total committed:193352915, progress insts committed: 5687317, IPC: 0.568163
18522495577326: Event_284: system.switch_cpus2 progress event, total committed:194715832, progress insts committed: 5599678, IPC: 0.559408
18522495577326: Event_283: system.switch_cpus1 progress event, total committed:193211162, progress insts committed: 5687110, IPC: 0.568142
18522495577326: Event_282: system.switch_cpus0 progress event, total committed:195114087, progress insts committed: 5312422, IPC: 0.530711
18525828910659: Event_282: system.switch_cpus0 progress event, total committed:197675052, progress insts committed: 2560965, IPC: 00.25584
18525828910659: Event_283: system.switch_cpus1 progress event, total committed:196340298, progress insts committed: 3129136, IPC: 0.312601
18525828910659: Event_284: system.switch_cpus2 progress event, total committed:197256667, progress insts committed: 2540835, IPC: 0.253829
18525828910659: Event_285: system.switch_cpus3 progress event, total committed:196416869, progress insts committed: 3063954, IPC: 0.306089
18529162243992: Event_285: system.switch_cpus3 progress event, total committed:198693657, progress insts committed: 2276788, IPC: 0.227451
18529162243992: Event_284: system.switch_cpus2 progress event, total committed:199535482, progress insts committed: 2278815, IPC: 0.227654
18529162243992: Event_283: system.switch_cpus1 progress event, total committed:198566152, progress insts committed: 2225854, IPC: 0.222363
18529162243992: Event_282: system.switch_cpus0 progress event, total committed:199962993, progress insts committed: 2287941, IPC: 0.228565
18532495577325: Event_282: system.switch_cpus0 progress event, total committed:202194233, progress insts committed: 2231240, IPC: 0.222901
18532495577325: Event_283: system.switch_cpus1 progress event, total committed:200794697, progress insts committed: 2228545, IPC: 0.222632
18532495577325: Event_284: system.switch_cpus2 progress event, total committed:201767657, progress insts committed: 2232175, IPC: 0.222994
18532495577325: Event_285: system.switch_cpus3 progress event, total committed:200916152, progress insts committed: 2222495, IPC: 0.222027
18535828910658: Event_285: system.switch_cpus3 progress event, total committed:203212457, progress insts committed: 2296305, IPC: 0.229401
18535828910658: Event_284: system.switch_cpus2 progress event, total committed:204024362, progress insts committed: 2256705, IPC: 0.225445
18535828910658: Event_283: system.switch_cpus1 progress event, total committed:203097162, progress insts committed: 2302465, IPC: 0.230016
18535828910658: Event_282: system.switch_cpus0 progress event, total committed:204458972, progress insts committed: 2264739, IPC: 0.226247
18539162243991: Event_282: system.switch_cpus0 progress event, total committed:206725962, progress insts committed: 2266990, IPC: 0.226472
18539162243991: Event_283: system.switch_cpus1 progress event, total committed:205410458, progress insts committed: 2313296, IPC: 0.231098
18539162243991: Event_284: system.switch_cpus2 progress event, total committed:206295029, progress insts committed: 2270667, IPC: 00.22684
18539162243991: Event_285: system.switch_cpus3 progress event, total committed:205520697, progress insts committed: 2308240, IPC: 0.230593
18542495577324: Event_285: system.switch_cpus3 progress event, total committed:207942732, progress insts committed: 2422035, IPC: 0.241961
18542495577324: Event_284: system.switch_cpus2 progress event, total committed:210219900, progress insts committed: 3924871, IPC: 0.392095
18542495577324: Event_283: system.switch_cpus1 progress event, total committed:207833597, progress insts committed: 2423139, IPC: 0.242072
18542495577324: Event_282: system.switch_cpus0 progress event, total committed:211064821, progress insts committed: 4338859, IPC: 0.433452
18545828910657: Event_282: system.switch_cpus0 progress event, total committed:215996431, progress insts committed: 4931610, IPC: 0.492668
18545828910657: Event_283: system.switch_cpus1 progress event, total committed:213890607, progress insts committed: 6057010, IPC: 0.605095
18545828910657: Event_284: system.switch_cpus2 progress event, total committed:215181115, progress insts committed: 4961215, IPC: 0.495625
18545828910657: Event_285: system.switch_cpus3 progress event, total committed:214085427, progress insts committed: 6142695, IPC: 0.613655
18549162243990: Event_285: system.switch_cpus3 progress event, total committed:219107184, progress insts committed: 5021757, IPC: 0.501674
18549162243990: Event_284: system.switch_cpus2 progress event, total committed:220154631, progress insts committed: 4973516, IPC: 0.496854
18549162243990: Event_283: system.switch_cpus1 progress event, total committed:218912013, progress insts committed: 5021406, IPC: 0.501638
18549162243990: Event_282: system.switch_cpus0 progress event, total committed:220976276, progress insts committed: 4979845, IPC: 0.497487
18552495577323: Event_282: system.switch_cpus0 progress event, total committed:225258667, progress insts committed: 4282391, IPC: 0.427811
18552495577323: Event_283: system.switch_cpus1 progress event, total committed:223866605, progress insts committed: 4954592, IPC: 0.494964
18552495577323: Event_284: system.switch_cpus2 progress event, total committed:224730506, progress insts committed: 4575875, IPC: 00.45713
18552495577323: Event_285: system.switch_cpus3 progress event, total committed:224057428, progress insts committed: 4950244, IPC: 0.494529
18555828910656: Event_285: system.switch_cpus3 progress event, total committed:226396571, progress insts committed: 2339143, IPC: 00.23368
18555828910656: Event_284: system.switch_cpus2 progress event, total committed:227081866, progress insts committed: 2351360, IPC: 0.234901
18555828910656: Event_283: system.switch_cpus1 progress event, total committed:226267086, progress insts committed: 2400481, IPC: 0.239808
18555828910656: Event_282: system.switch_cpus0 progress event, total committed:227615531, progress insts committed: 2356864, IPC: 0.235451
18559162243989: Event_282: system.switch_cpus0 progress event, total committed:230071513, progress insts committed: 2455982, IPC: 0.245353
18559162243989: Event_283: system.switch_cpus1 progress event, total committed:228695116, progress insts committed: 2428030, IPC: 00.24256
18559162243989: Event_284: system.switch_cpus2 progress event, total committed:229540366, progress insts committed: 2458500, IPC: 0.245604
18559162243989: Event_285: system.switch_cpus3 progress event, total committed:228852431, progress insts committed: 2455860, IPC: 00.24534
18562495577322: Event_285: system.switch_cpus3 progress event, total committed:231240586, progress insts committed: 2388155, IPC: 0.238577
18562495577322: Event_284: system.switch_cpus2 progress event, total committed:231927325, progress insts committed: 2386959, IPC: 0.238457
18562495577322: Event_283: system.switch_cpus1 progress event, total committed:231087836, progress insts committed: 2392720, IPC: 0.239033
18562495577322: Event_282: system.switch_cpus0 progress event, total committed:232461467, progress insts committed: 2389954, IPC: 0.238756
18565828910655: Event_282: system.switch_cpus0 progress event, total committed:234816351, progress insts committed: 2354884, IPC: 0.235253
18565828910655: Event_283: system.switch_cpus1 progress event, total committed:233401741, progress insts committed: 2313905, IPC: 0.231159
18565828910655: Event_284: system.switch_cpus2 progress event, total committed:234237641, progress insts committed: 2310316, IPC: 0.230801
18565828910655: Event_285: system.switch_cpus3 progress event, total committed:233537551, progress insts committed: 2296965, IPC: 0.229467
18569162243988: Event_285: system.switch_cpus3 progress event, total committed:235976361, progress insts committed: 2438810, IPC: 0.243637
18569162243988: Event_284: system.switch_cpus2 progress event, total committed:236626507, progress insts committed: 2388866, IPC: 0.238648
18569162243988: Event_283: system.switch_cpus1 progress event, total committed:235813436, progress insts committed: 2411695, IPC: 0.240928
18569162243988: Event_282: system.switch_cpus0 progress event, total committed:237236681, progress insts committed: 2420330, IPC: 0.241791
18572495577321: Event_282: system.switch_cpus0 progress event, total committed:242661719, progress insts committed: 5425038, IPC: 0.541961
18572495577321: Event_283: system.switch_cpus1 progress event, total committed:240357463, progress insts committed: 4544027, IPC: 0.453948
18572495577321: Event_284: system.switch_cpus2 progress event, total committed:241652477, progress insts committed: 5025970, IPC: 0.502094
18572495577321: Event_285: system.switch_cpus3 progress event, total committed:240608269, progress insts committed: 4631908, IPC: 0.462728
18575828910654: Event_285: system.switch_cpus3 progress event, total committed:246068950, progress insts committed: 5460681, IPC: 0.545522
18575828910654: Event_284: system.switch_cpus2 progress event, total committed:247154519, progress insts committed: 5502042, IPC: 0.549654
18575828910654: Event_283: system.switch_cpus1 progress event, total committed:245830803, progress insts committed: 5473340, IPC: 0.546787
18575828910654: Event_282: system.switch_cpus0 progress event, total committed:248174819, progress insts committed: 5513100, IPC: 0.550759
18579162243987: Event_282: system.switch_cpus0 progress event, total committed:253736414, progress insts committed: 5561595, IPC: 0.555603
18579162243987: Event_283: system.switch_cpus1 progress event, total committed:251358388, progress insts committed: 5527585, IPC: 0.552206
18579162243987: Event_284: system.switch_cpus2 progress event, total committed:252718163, progress insts committed: 5563644, IPC: 0.555808
18579162243987: Event_285: system.switch_cpus3 progress event, total committed:251617416, progress insts committed: 5548466, IPC: 0.554292
18582495577320: Event_285: system.switch_cpus3 progress event, total committed:257224198, progress insts committed: 5606782, IPC: 0.560118
18582495577320: Event_284: system.switch_cpus2 progress event, total committed:257419956, progress insts committed: 4701793, IPC: 0.469709
18582495577320: Event_283: system.switch_cpus1 progress event, total committed:256986850, progress insts committed: 5628462, IPC: 0.562283
18582495577320: Event_282: system.switch_cpus0 progress event, total committed:257459826, progress insts committed: 3723412, IPC: 0.371969
18585828910653: Event_282: system.switch_cpus0 progress event, total committed:257634894, progress insts committed: 175068, IPC: 0.0174893
18585828910653: Event_283: system.switch_cpus1 progress event, total committed:257542157, progress insts committed: 555307, IPC: 0.0554752
18585828910653: Event_284: system.switch_cpus2 progress event, total committed:257597997, progress insts committed: 178041, IPC: 0.0177863
18585828910653: Event_285: system.switch_cpus3 progress event, total committed:257551554, progress insts committed: 327356, IPC: 0.0327029
18589162243986: Event_285: system.switch_cpus3 progress event, total committed:257708333, progress insts committed: 156779, IPC: 0.0156622
18589162243986: Event_284: system.switch_cpus2 progress event, total committed:257755572, progress insts committed: 157575, IPC: 0.0157417
18589162243986: Event_283: system.switch_cpus1 progress event, total committed:257698646, progress insts committed: 156489, IPC: 0.0156333
18589162243986: Event_282: system.switch_cpus0 progress event, total committed:257794092, progress insts committed: 159198, IPC: 0.0159039
18592495577319: Event_282: system.switch_cpus0 progress event, total committed:257957754, progress insts committed: 163662, IPC: 0.0163498
18592495577319: Event_283: system.switch_cpus1 progress event, total committed:257854073, progress insts committed: 155427, IPC: 0.0155272
18592495577319: Event_284: system.switch_cpus2 progress event, total committed:257914554, progress insts committed: 158982, IPC: 0.0158823
18592495577319: Event_285: system.switch_cpus3 progress event, total committed:257863796, progress insts committed: 155463, IPC: 0.0155308
18595828910652: Event_285: system.switch_cpus3 progress event, total committed:258032267, progress insts committed: 168471, IPC: 0.0168303
18595828910652: Event_284: system.switch_cpus2 progress event, total committed:258086973, progress insts committed: 172419, IPC: 0.0172247
18595828910652: Event_283: system.switch_cpus1 progress event, total committed:258021818, progress insts committed: 167745, IPC: 0.0167577
18595828910652: Event_282: system.switch_cpus0 progress event, total committed:258129456, progress insts committed: 171702, IPC: 0.017153
18599162243985: Event_282: system.switch_cpus0 progress event, total committed:258301106, progress insts committed: 171650, IPC: 0.0171478
18599162243985: Event_283: system.switch_cpus1 progress event, total committed:258191921, progress insts committed: 170103, IPC: 0.0169933
18599162243985: Event_284: system.switch_cpus2 progress event, total committed:258258786, progress insts committed: 171813, IPC: 0.0171641
18599162243985: Event_285: system.switch_cpus3 progress event, total committed:258201248, progress insts committed: 168981, IPC: 0.0168812
18602495577318: Event_285: system.switch_cpus3 progress event, total committed:258357827, progress insts committed: 156579, IPC: 0.0156422
18602495577318: Event_284: system.switch_cpus2 progress event, total committed:258417882, progress insts committed: 159096, IPC: 0.0158937
18602495577318: Event_283: system.switch_cpus1 progress event, total committed:258348044, progress insts committed: 156123, IPC: 0.0155967
18602495577318: Event_282: system.switch_cpus0 progress event, total committed:258914949, progress insts committed: 613843, IPC: 0.0613229
18605828910651: Event_282: system.switch_cpus0 progress event, total committed:260951109, progress insts committed: 2036160, IPC: 0.203412
18605828910651: Event_283: system.switch_cpus1 progress event, total committed:258809661, progress insts committed: 461617, IPC: 0.0461155
18605828910651: Event_284: system.switch_cpus2 progress event, total committed:260186596, progress insts committed: 1768714, IPC: 0.176695
18605828910651: Event_285: system.switch_cpus3 progress event, total committed:259014636, progress insts committed: 656809, IPC: 0.0656152
18609162243984: Event_285: system.switch_cpus3 progress event, total committed:260919854, progress insts committed: 1905218, IPC: 0.190331
18609162243984: Event_284: system.switch_cpus2 progress event, total committed:261928974, progress insts committed: 1742378, IPC: 0.174064
18609162243984: Event_283: system.switch_cpus1 progress event, total committed:260743244, progress insts committed: 1933583, IPC: 0.193165
18609162243984: Event_282: system.switch_cpus0 progress event, total committed:262519320, progress insts committed: 1568211, IPC: 0.156664
18612495577317: Event_282: system.switch_cpus0 progress event, total committed:263179777, progress insts committed: 660457, IPC: 0.0659797
18612495577317: Event_283: system.switch_cpus1 progress event, total committed:262595081, progress insts committed: 1851837, IPC: 0.184999
18612495577317: Event_284: system.switch_cpus2 progress event, total committed:262873548, progress insts committed: 944574, IPC: 0.0943629
18612495577317: Event_285: system.switch_cpus3 progress event, total committed:262635257, progress insts committed: 1715403, IPC: 0.171369
18615828910650: Event_285: system.switch_cpus3 progress event, total committed:263344557, progress insts committed: 709300, IPC: 0.0708591
18615828910650: Event_284: system.switch_cpus2 progress event, total committed:264350017, progress insts committed: 1476469, IPC: 0.147499
18615828910650: Event_283: system.switch_cpus1 progress event, total committed:263175297, progress insts committed: 580216, IPC: 0.0579636
18615828910650: Event_282: system.switch_cpus0 progress event, total committed:264816817, progress insts committed: 1637040, IPC: 00.16354
18619162243983: Event_282: system.switch_cpus0 progress event, total committed:266030617, progress insts committed: 1213800, IPC: 0.121259
18619162243983: Event_283: system.switch_cpus1 progress event, total committed:264406362, progress insts committed: 1231065, IPC: 0.122983
18619162243983: Event_284: system.switch_cpus2 progress event, total committed:265566593, progress insts committed: 1216576, IPC: 0.121536
18619162243983: Event_285: system.switch_cpus3 progress event, total committed:264572697, progress insts committed: 1228140, IPC: 0.122691
18622495577316: Event_285: system.switch_cpus3 progress event, total committed:266017136, progress insts committed: 1444439, IPC: 0.144299
18622495577316: Event_284: system.switch_cpus2 progress event, total committed:266702999, progress insts committed: 1136406, IPC: 0.113527
18622495577316: Event_283: system.switch_cpus1 progress event, total committed:265856352, progress insts committed: 1449990, IPC: 0.144854
18622495577316: Event_282: system.switch_cpus0 progress event, total committed:266816312, progress insts committed: 785695, IPC: 0.0784909
18625828910649: Event_282: system.switch_cpus0 progress event, total committed:268065403, progress insts committed: 1249091, IPC: 0.124784
18625828910649: Event_283: system.switch_cpus1 progress event, total committed:266912266, progress insts committed: 1055914, IPC: 0.105486
18625828910649: Event_284: system.switch_cpus2 progress event, total committed:267488758, progress insts committed: 785759, IPC: 0.0784973
18625828910649: Event_285: system.switch_cpus3 progress event, total committed:266948713, progress insts committed: 931577, IPC: 0.0930645
18629162243982: Event_285: system.switch_cpus3 progress event, total committed:267930438, progress insts committed: 981725, IPC: 0.0980743
18629162243982: Event_284: system.switch_cpus2 progress event, total committed:269015668, progress insts committed: 1526910, IPC: 0.152538
18629162243982: Event_283: system.switch_cpus1 progress event, total committed:267766893, progress insts committed: 854627, IPC: 0.0853772
18629162243982: Event_282: system.switch_cpus0 progress event, total committed:269582203, progress insts committed: 1516800, IPC: 0.151528
18632495577315: Event_282: system.switch_cpus0 progress event, total committed:270801875, progress insts committed: 1219672, IPC: 0.121845
18632495577315: Event_283: system.switch_cpus1 progress event, total committed:269066853, progress insts committed: 1299960, IPC: 0.129866
18632495577315: Event_284: system.switch_cpus2 progress event, total committed:270317908, progress insts committed: 1302240, IPC: 0.130094
18632495577315: Event_285: system.switch_cpus3 progress event, total committed:269226573, progress insts committed: 1296135, IPC: 0.129484
18635828910648: Event_285: system.switch_cpus3 progress event, total committed:270843751, progress insts committed: 1617178, IPC: 0.161556
18635828910648: Event_284: system.switch_cpus2 progress event, total committed:271078316, progress insts committed: 760408, IPC: 0.0759648
18635828910648: Event_283: system.switch_cpus1 progress event, total committed:270809917, progress insts committed: 1743064, IPC: 0.174132
18635828910648: Event_282: system.switch_cpus0 progress event, total committed:271207643, progress insts committed: 405768, IPC: 0.0405362
18639162243981: Event_282: system.switch_cpus0 progress event, total committed:273375194, progress insts committed: 2167551, IPC: 0.216538
18639162243981: Event_283: system.switch_cpus1 progress event, total committed:271357014, progress insts committed: 547097, IPC: 0.054655
18639162243981: Event_284: system.switch_cpus2 progress event, total committed:272699959, progress insts committed: 1621643, IPC: 0.162002
18639162243981: Event_285: system.switch_cpus3 progress event, total committed:271516804, progress insts committed: 673053, IPC: 0.067238
18642495577314: Event_285: system.switch_cpus3 progress event, total committed:273903529, progress insts committed: 2386725, IPC: 0.238434
18642495577314: Event_284: system.switch_cpus2 progress event, total committed:275078104, progress insts committed: 2378145, IPC: 0.237577
18642495577314: Event_283: system.switch_cpus1 progress event, total committed:273748359, progress insts committed: 2391345, IPC: 0.238895
18642495577314: Event_282: system.switch_cpus0 progress event, total committed:275765600, progress insts committed: 2390406, IPC: 0.238802
18645828910647: Event_282: system.switch_cpus0 progress event, total committed:279027755, progress insts committed: 3262155, IPC: 0.325889
18645828910647: Event_283: system.switch_cpus1 progress event, total committed:276170504, progress insts committed: 2422145, IPC: 0.241972
18645828910647: Event_284: system.switch_cpus2 progress event, total committed:277504095, progress insts committed: 2425991, IPC: 0.242357
18645828910647: Event_285: system.switch_cpus3 progress event, total committed:276302409, progress insts committed: 2398880, IPC: 0.239648
18649162243980: Event_285: system.switch_cpus3 progress event, total committed:280578138, progress insts committed: 4275729, IPC: 0.427145
18649162243980: Event_284: system.switch_cpus2 progress event, total committed:282610656, progress insts committed: 5106561, IPC: 0.510145
18649162243980: Event_283: system.switch_cpus1 progress event, total committed:280329550, progress insts committed: 4159046, IPC: 0.415489
18649162243980: Event_282: system.switch_cpus0 progress event, total committed:283798104, progress insts committed: 4770349, IPC: 0.476558
18652495577313: Event_282: system.switch_cpus0 progress event, total committed:288890297, progress insts committed: 5092193, IPC: 00.50871
18652495577313: Event_283: system.switch_cpus1 progress event, total committed:285842459, progress insts committed: 5512909, IPC: 00.55074
18652495577313: Event_284: system.switch_cpus2 progress event, total committed:288142393, progress insts committed: 5531737, IPC: 0.552621
18652495577313: Event_285: system.switch_cpus3 progress event, total committed:286087499, progress insts committed: 5509361, IPC: 0.550385
18655828910646: Event_285: system.switch_cpus3 progress event, total committed:289627074, progress insts committed: 3539575, IPC: 0.353604
18655828910646: Event_284: system.switch_cpus2 progress event, total committed:290843394, progress insts committed: 2701001, IPC: 00.26983
18655828910646: Event_283: system.switch_cpus1 progress event, total committed:289501219, progress insts committed: 3658760, IPC: 00.36551
18655828910646: Event_282: system.switch_cpus0 progress event, total committed:291513797, progress insts committed: 2623500, IPC: 0.262088
18659162243979: Event_282: system.switch_cpus0 progress event, total committed:293764452, progress insts committed: 2250655, IPC: 00.22484
18659162243979: Event_283: system.switch_cpus1 progress event, total committed:291765903, progress insts committed: 2264684, IPC: 0.226242
18659162243979: Event_284: system.switch_cpus2 progress event, total committed:293109732, progress insts committed: 2266338, IPC: 0.226407
18659162243979: Event_285: system.switch_cpus3 progress event, total committed:291894834, progress insts committed: 2267760, IPC: 0.226549
18662495577312: Event_285: system.switch_cpus3 progress event, total committed:294084117, progress insts committed: 2189283, IPC: 0.218709
18662495577312: Event_284: system.switch_cpus2 progress event, total committed:296649498, progress insts committed: 3539766, IPC: 0.353623
18662495577312: Event_283: system.switch_cpus1 progress event, total committed:293954742, progress insts committed: 2188839, IPC: 0.218665
18662495577312: Event_282: system.switch_cpus0 progress event, total committed:297819330, progress insts committed: 4054878, IPC: 0.405082
18665828910645: Event_282: system.switch_cpus0 progress event, total committed:302347051, progress insts committed: 4527721, IPC: 0.452319
18665828910645: Event_283: system.switch_cpus1 progress event, total committed:298866009, progress insts committed: 4911267, IPC: 0.490636
18665828910645: Event_284: system.switch_cpus2 progress event, total committed:301205704, progress insts committed: 4556206, IPC: 0.455165
18665828910645: Event_285: system.switch_cpus3 progress event, total committed:299098914, progress insts committed: 5014797, IPC: 0.500978
18669162243978: Event_285: system.switch_cpus3 progress event, total committed:303786419, progress insts committed: 4687505, IPC: 0.468282
18669162243978: Event_284: system.switch_cpus2 progress event, total committed:305152110, progress insts committed: 3946406, IPC: 0.394246
18669162243978: Event_283: system.switch_cpus1 progress event, total committed:303635035, progress insts committed: 4769026, IPC: 0.476426
18669162243978: Event_282: system.switch_cpus0 progress event, total committed:305885700, progress insts committed: 3538649, IPC: 0.353511
18672495577311: Event_282: system.switch_cpus0 progress event, total committed:308381391, progress insts committed: 2495691, IPC: 00.24932
18672495577311: Event_283: system.switch_cpus1 progress event, total committed:306124535, progress insts committed: 2489500, IPC: 0.248701
18672495577311: Event_284: system.switch_cpus2 progress event, total committed:307659450, progress insts committed: 2507340, IPC: 0.250483
18672495577311: Event_285: system.switch_cpus3 progress event, total committed:306304039, progress insts committed: 2517620, IPC: 00.25151
18675828910644: Event_285: system.switch_cpus3 progress event, total committed:308777678, progress insts committed: 2473639, IPC: 0.247117
18675828910644: Event_284: system.switch_cpus2 progress event, total committed:310155189, progress insts committed: 2495739, IPC: 0.249324
18675828910644: Event_283: system.switch_cpus1 progress event, total committed:308591859, progress insts committed: 2467324, IPC: 0.246486
18675828910644: Event_282: system.switch_cpus0 progress event, total committed:312405712, progress insts committed: 4024321, IPC: 00.40203
18679162243977: Event_282: system.switch_cpus0 progress event, total committed:317082248, progress insts committed: 4676536, IPC: 0.467186
18679162243977: Event_283: system.switch_cpus1 progress event, total committed:313197381, progress insts committed: 4605522, IPC: 0.460092
18679162243977: Event_284: system.switch_cpus2 progress event, total committed:315881827, progress insts committed: 5726638, IPC: 0.572091
18679162243977: Event_285: system.switch_cpus3 progress event, total committed:313595196, progress insts committed: 4817518, IPC: 00.48127
18682495577310: Event_285: system.switch_cpus3 progress event, total committed:319160170, progress insts committed: 5564974, IPC: 0.555941
18682495577310: Event_284: system.switch_cpus2 progress event, total committed:320653916, progress insts committed: 4772089, IPC: 0.476732
18682495577310: Event_283: system.switch_cpus1 progress event, total committed:318770643, progress insts committed: 5573262, IPC: 0.556769
18682495577310: Event_282: system.switch_cpus0 progress event, total committed:320698037, progress insts committed: 3615789, IPC: 0.361217
18685828910643: Event_282: system.switch_cpus0 progress event, total committed:320875787, progress insts committed: 177750, IPC: 0.0177572
18685828910643: Event_283: system.switch_cpus1 progress event, total committed:320731300, progress insts committed: 1960657, IPC: 00.19587
18685828910643: Event_284: system.switch_cpus2 progress event, total committed:320830716, progress insts committed: 176800, IPC: 0.0176623
18685828910643: Event_285: system.switch_cpus3 progress event, total committed:320745163, progress insts committed: 1584993, IPC: 0.158341
18689162243976: Event_285: system.switch_cpus3 progress event, total committed:320900340, progress insts committed: 155177, IPC: 0.0155022
18689162243976: Event_284: system.switch_cpus2 progress event, total committed:320998303, progress insts committed: 167587, IPC: 0.0167419
18689162243976: Event_283: system.switch_cpus1 progress event, total committed:320886127, progress insts committed: 154827, IPC: 0.0154672
18689162243976: Event_282: system.switch_cpus0 progress event, total committed:321046408, progress insts committed: 170621, IPC: 0.017045
18692495577309: Event_282: system.switch_cpus0 progress event, total committed:321748175, progress insts committed: 701767, IPC: 0.0701065
18692495577309: Event_283: system.switch_cpus1 progress event, total committed:321036249, progress insts committed: 150122, IPC: 0.0149972
18692495577309: Event_284: system.switch_cpus2 progress event, total committed:321146881, progress insts committed: 148578, IPC: 0.0148429
18692495577309: Event_285: system.switch_cpus3 progress event, total committed:321050622, progress insts committed: 150282, IPC: 0.0150132
18695828910642: Event_285: system.switch_cpus3 progress event, total committed:321345280, progress insts committed: 294658, IPC: 0.0294363
18695828910642: Event_284: system.switch_cpus2 progress event, total committed:322942924, progress insts committed: 1796043, IPC: 0.179425
18695828910642: Event_283: system.switch_cpus1 progress event, total committed:321154329, progress insts committed: 118080, IPC: 0.0117962
18695828910642: Event_282: system.switch_cpus0 progress event, total committed:323215286, progress insts committed: 1467111, IPC: 0.146564
18699162243975: Event_282: system.switch_cpus0 progress event, total committed:324329497, progress insts committed: 1114211, IPC: 00.11131
18699162243975: Event_283: system.switch_cpus1 progress event, total committed:322510270, progress insts committed: 1355941, IPC: 0.135459
18699162243975: Event_284: system.switch_cpus2 progress event, total committed:323831032, progress insts committed: 888108, IPC: 0.088722
18699162243975: Event_285: system.switch_cpus3 progress event, total committed:322758940, progress insts committed: 1413660, IPC: 0.141225
18702495577308: Event_285: system.switch_cpus3 progress event, total committed:323926872, progress insts committed: 1167932, IPC: 0.116676
18702495577308: Event_284: system.switch_cpus2 progress event, total committed:325309312, progress insts committed: 1478280, IPC: 00.14768
18702495577308: Event_283: system.switch_cpus1 progress event, total committed:323676192, progress insts committed: 1165922, IPC: 0.116476
18702495577308: Event_282: system.switch_cpus0 progress event, total committed:325393132, progress insts committed: 1063635, IPC: 0.106257
18705828910641: Event_282: system.switch_cpus0 progress event, total committed:326998756, progress insts committed: 1605624, IPC: 0.160402
18705828910641: Event_283: system.switch_cpus1 progress event, total committed:325028561, progress insts committed: 1352369, IPC: 0.135102
18705828910641: Event_284: system.switch_cpus2 progress event, total committed:326630731, progress insts committed: 1321419, IPC: 00.13201
18705828910641: Event_285: system.switch_cpus3 progress event, total committed:325230447, progress insts committed: 1303575, IPC: 0.130227
18709162243974: Event_285: system.switch_cpus3 progress event, total committed:326888931, progress insts committed: 1658484, IPC: 0.165683
18709162243974: Event_284: system.switch_cpus2 progress event, total committed:328026564, progress insts committed: 1395833, IPC: 0.139444
18709162243974: Event_283: system.switch_cpus1 progress event, total committed:326601156, progress insts committed: 1572595, IPC: 0.157102
18709162243974: Event_282: system.switch_cpus0 progress event, total committed:328288034, progress insts committed: 1289278, IPC: 0.128799
18712495577307: Event_282: system.switch_cpus0 progress event, total committed:330411969, progress insts committed: 2123935, IPC: 0.212181
18712495577307: Event_283: system.switch_cpus1 progress event, total committed:328059990, progress insts committed: 1458834, IPC: 0.145738
18712495577307: Event_284: system.switch_cpus2 progress event, total committed:330150004, progress insts committed: 2123440, IPC: 0.212132
18712495577307: Event_285: system.switch_cpus3 progress event, total committed:328402439, progress insts committed: 1513508, IPC: 0.151199
18715828910640: Event_285: system.switch_cpus3 progress event, total committed:330917314, progress insts committed: 2514875, IPC: 0.251236
18715828910640: Event_284: system.switch_cpus2 progress event, total committed:334697495, progress insts committed: 4547491, IPC: 0.454294
18715828910640: Event_283: system.switch_cpus1 progress event, total committed:330570626, progress insts committed: 2510636, IPC: 0.250813
18715828910640: Event_282: system.switch_cpus0 progress event, total committed:335283614, progress insts committed: 4871645, IPC: 0.486677
18719162243973: Event_282: system.switch_cpus0 progress event, total committed:338495840, progress insts committed: 3212226, IPC: 0.320901
18719162243973: Event_283: system.switch_cpus1 progress event, total committed:336179957, progress insts committed: 5609331, IPC: 0.560372
18719162243973: Event_284: system.switch_cpus2 progress event, total committed:338188441, progress insts committed: 3490946, IPC: 0.348746
18719162243973: Event_285: system.switch_cpus3 progress event, total committed:336594495, progress insts committed: 5677181, IPC: 00.56715
18722495577306: Event_285: system.switch_cpus3 progress event, total committed:339037870, progress insts committed: 2443375, IPC: 0.244093
18722495577306: Event_284: system.switch_cpus2 progress event, total committed:342262647, progress insts committed: 4074206, IPC: 0.407013
18722495577306: Event_283: system.switch_cpus1 progress event, total committed:338752845, progress insts committed: 2572888, IPC: 0.257032
18722495577306: Event_282: system.switch_cpus0 progress event, total committed:342982137, progress insts committed: 4486297, IPC: 0.448181
18725828910639: Event_282: system.switch_cpus0 progress event, total committed:346194297, progress insts committed: 3212160, IPC: 0.320895
18725828910639: Event_283: system.switch_cpus1 progress event, total committed:343594868, progress insts committed: 4842023, IPC: 0.483718
18725828910639: Event_284: system.switch_cpus2 progress event, total committed:345743348, progress insts committed: 3480701, IPC: 0.347722
18725828910639: Event_285: system.switch_cpus3 progress event, total committed:344070428, progress insts committed: 5032558, IPC: 0.502753
18729162243972: Event_285: system.switch_cpus3 progress event, total committed:346726262, progress insts committed: 2655834, IPC: 0.265318
18729162243972: Event_284: system.switch_cpus2 progress event, total committed:349806557, progress insts committed: 4063209, IPC: 0.405915
18729162243972: Event_283: system.switch_cpus1 progress event, total committed:346422148, progress insts committed: 2827280, IPC: 0.282445
18729162243972: Event_282: system.switch_cpus0 progress event, total committed:350732721, progress insts committed: 4538424, IPC: 0.453389
18732495577305: Event_282: system.switch_cpus0 progress event, total committed:352968811, progress insts committed: 2236090, IPC: 0.223385
18732495577305: Event_283: system.switch_cpus1 progress event, total committed:351669248, progress insts committed: 5247100, IPC: 0.524185
18732495577305: Event_284: system.switch_cpus2 progress event, total committed:352936207, progress insts committed: 3129650, IPC: 0.312652
18732495577305: Event_285: system.switch_cpus3 progress event, total committed:352159376, progress insts committed: 5433114, IPC: 0.542768
18735828910638: Event_285: system.switch_cpus3 progress event, total committed:352995271, progress insts committed: 835895, IPC: 0.0835059
18735828910638: Event_284: system.switch_cpus2 progress event, total committed:353114921, progress insts committed: 178714, IPC: 0.0178535
18735828910638: Event_283: system.switch_cpus1 progress event, total committed:352974126, progress insts committed: 1304878, IPC: 0.130357
18735828910638: Event_282: system.switch_cpus0 progress event, total committed:353545989, progress insts committed: 577178, IPC: 0.0576601
18739162243971: Event_282: system.switch_cpus0 progress event, total committed:355337818, progress insts committed: 1791829, IPC: 0.179004
18739162243971: Event_283: system.switch_cpus1 progress event, total committed:353101858, progress insts committed: 127732, IPC: 0.0127604
18739162243971: Event_284: system.switch_cpus2 progress event, total committed:354897707, progress insts committed: 1782786, IPC: 000.1781
18739162243971: Event_285: system.switch_cpus3 progress event, total committed:353123338, progress insts committed: 128067, IPC: 0.0127939
18742495577304: Event_285: system.switch_cpus3 progress event, total committed:354687801, progress insts committed: 1564463, IPC: 00.15629
18742495577304: Event_284: system.switch_cpus2 progress event, total committed:356335029, progress insts committed: 1437322, IPC: 0.143588
18742495577304: Event_283: system.switch_cpus1 progress event, total committed:354290697, progress insts committed: 1188839, IPC: 0.118765
18742495577304: Event_282: system.switch_cpus0 progress event, total committed:356528030, progress insts committed: 1190212, IPC: 0.118902
18745828910637: Event_282: system.switch_cpus0 progress event, total committed:359058359, progress insts committed: 2530329, IPC: 00.25278
18745828910637: Event_283: system.switch_cpus1 progress event, total committed:356013930, progress insts committed: 1723233, IPC: 0.172151
18745828910637: Event_284: system.switch_cpus2 progress event, total committed:358148271, progress insts committed: 1813242, IPC: 0.181143
18745828910637: Event_285: system.switch_cpus3 progress event, total committed:356395361, progress insts committed: 1707560, IPC: 0.170585
18749162243970: Event_285: system.switch_cpus3 progress event, total committed:360416388, progress insts committed: 4021027, IPC: 0.401701
18749162243970: Event_284: system.switch_cpus2 progress event, total committed:362461552, progress insts committed: 4313281, IPC: 0.430897
18749162243970: Event_283: system.switch_cpus1 progress event, total committed:358547356, progress insts committed: 2533426, IPC: 0.253089
18749162243970: Event_282: system.switch_cpus0 progress event, total committed:362829777, progress insts committed: 3771418, IPC: 0.376765
18752495577303: Event_282: system.switch_cpus0 progress event, total committed:367871605, progress insts committed: 5041828, IPC: 0.503679
18752495577303: Event_283: system.switch_cpus1 progress event, total committed:363130974, progress insts committed: 4583618, IPC: 0.457903
18752495577303: Event_284: system.switch_cpus2 progress event, total committed:366555504, progress insts committed: 4093952, IPC: 0.408986
18752495577303: Event_285: system.switch_cpus3 progress event, total committed:364901894, progress insts committed: 4485506, IPC: 0.448102
18755828910636: Event_285: system.switch_cpus3 progress event, total committed:369590478, progress insts committed: 4688584, IPC: 00.46839
18755828910636: Event_284: system.switch_cpus2 progress event, total committed:369797213, progress insts committed: 3241709, IPC: 0.323847
18755828910636: Event_283: system.switch_cpus1 progress event, total committed:368816217, progress insts committed: 5685243, IPC: 0.567956
18755828910636: Event_282: system.switch_cpus0 progress event, total committed:369818495, progress insts committed: 1946890, IPC: 0.194494
18759162243969: Event_282: system.switch_cpus0 progress event, total committed:371758457, progress insts committed: 1939962, IPC: 0.193802
18759162243969: Event_283: system.switch_cpus1 progress event, total committed:369781486, progress insts committed: 965269, IPC: 0.0964304
18759162243969: Event_284: system.switch_cpus2 progress event, total committed:371474514, progress insts committed: 1677301, IPC: 0.167562
18759162243969: Event_285: system.switch_cpus3 progress event, total committed:369814153, progress insts committed: 223675, IPC: 0.0223451
18762495577302: Event_285: system.switch_cpus3 progress event, total committed:371672294, progress insts committed: 1858141, IPC: 0.185628
18762495577302: Event_284: system.switch_cpus2 progress event, total committed:376212206, progress insts committed: 4737692, IPC: 0.473295
18762495577302: Event_283: system.switch_cpus1 progress event, total committed:371230248, progress insts committed: 1448762, IPC: 0.144731
18762495577302: Event_282: system.switch_cpus0 progress event, total committed:376862386, progress insts committed: 5103929, IPC: 0.509883
18765828910635: Event_282: system.switch_cpus0 progress event, total committed:390310715, progress insts committed: 13448329, IPC: 01.34349
18765828910635: Event_283: system.switch_cpus1 progress event, total committed:377816206, progress insts committed: 6585958, IPC: 0.657937
18765828910635: Event_284: system.switch_cpus2 progress event, total committed:388593913, progress insts committed: 12381707, IPC: 01.23693
18765828910635: Event_285: system.switch_cpus3 progress event, total committed:378328049, progress insts committed: 6655755, IPC: 00.66491
18769162243968: Event_285: system.switch_cpus3 progress event, total committed:396937631, progress insts committed: 18609582, IPC: 001.8591
18769162243968: Event_284: system.switch_cpus2 progress event, total committed:413624883, progress insts committed: 25030970, IPC: 02.50059
18769162243968: Event_283: system.switch_cpus1 progress event, total committed:392538247, progress insts committed: 14722041, IPC: 01.47073
18769162243968: Event_282: system.switch_cpus0 progress event, total committed:415358351, progress insts committed: 25047636, IPC: 02.50226
18772495577301: Event_282: system.switch_cpus0 progress event, total committed:442100014, progress insts committed: 26741663, IPC: 02.67149
18772495577301: Event_283: system.switch_cpus1 progress event, total committed:416486814, progress insts committed: 23948567, IPC: 02.39246
18772495577301: Event_284: system.switch_cpus2 progress event, total committed:440988467, progress insts committed: 27363584, IPC: 02.73362
18772495577301: Event_285: system.switch_cpus3 progress event, total committed:420804555, progress insts committed: 23866924, IPC: 02.38431
Exiting @ tick 18774091779003 because a thread reached the max instruction count
