
---------- Begin Simulation Statistics ----------
final_tick                               18774091779003                       # Number of ticks from beginning of simulation (restored from checkpoints and never reset)
host_inst_rate                                  66301                       # Simulator instruction rate (inst/s)
host_mem_usage                               17865360                       # Number of bytes of host memory used
host_op_rate                                   118465                       # Simulator op (including micro ops) rate (op/s)
host_seconds                                 14801.53                       # Real time elapsed on the host
host_tick_rate                               37491369                       # Simulator tick rate (ticks/s)
sim_freq                                 1000000000000                       # Frequency of simulated ticks
sim_insts                                   981360242                       # Number of instructions simulated
sim_ops                                    1753458920                       # Number of ops (including micro ops) simulated
sim_seconds                                  0.554930                       # Number of seconds simulated
sim_ticks                                554929534980                       # Number of ticks simulated
system.cpu0.Branches                                1                       # Number of branches fetched
system.cpu0.committedInsts                         13                       # Number of instructions committed
system.cpu0.committedOps                           27                       # Number of ops (including micro ops) committed
system.cpu0.idle_fraction                           0                       # Percentage of idle cycles
system.cpu0.l2bus.snoop_filter.hit_multi_requests           19                       # Number of requests hitting in the snoop filter with multiple (>1) holders of the requested data.
system.cpu0.l2bus.snoop_filter.hit_multi_snoops            0                       # Number of snoops hitting in the snoop filter with multiple (>1) holders of the requested data.
system.cpu0.l2bus.snoop_filter.hit_single_requests     12235311                       # Number of requests hitting in the snoop filter with a single holder of the requested data.
system.cpu0.l2bus.snoop_filter.hit_single_snoops         3589                       # Number of snoops hitting in the snoop filter with a single holder of the requested data.
system.cpu0.l2bus.snoop_filter.tot_requests     24467538                       # Total number of requests made to the snoop filter.
system.cpu0.l2bus.snoop_filter.tot_snoops         3589                       # Total number of snoops made to the snoop filter.
system.cpu0.mmucache.mmubus.snoop_filter.hit_multi_requests            0                       # Number of requests hitting in the snoop filter with multiple (>1) holders of the requested data.
system.cpu0.mmucache.mmubus.snoop_filter.hit_multi_snoops            0                       # Number of snoops hitting in the snoop filter with multiple (>1) holders of the requested data.
system.cpu0.mmucache.mmubus.snoop_filter.hit_single_requests            0                       # Number of requests hitting in the snoop filter with a single holder of the requested data.
system.cpu0.mmucache.mmubus.snoop_filter.hit_single_snoops            0                       # Number of snoops hitting in the snoop filter with a single holder of the requested data.
system.cpu0.mmucache.mmubus.snoop_filter.tot_requests            0                       # Total number of requests made to the snoop filter.
system.cpu0.mmucache.mmubus.snoop_filter.tot_snoops            0                       # Total number of snoops made to the snoop filter.
system.cpu0.not_idle_fraction                       1                       # Percentage of non-idle cycles
system.cpu0.numCycles                              33                       # number of cpu cycles simulated
system.cpu0.numWorkItemsCompleted                   0                       # number of work items this cpu completed
system.cpu0.numWorkItemsStarted                     0                       # number of work items this cpu started
system.cpu0.num_busy_cycles                        33                       # Number of busy cycles
system.cpu0.num_cc_register_reads                   5                       # number of times the CC registers were read
system.cpu0.num_conditional_control_insts            1                       # number of instructions that are conditional controls
system.cpu0.num_fp_alu_accesses                    24                       # Number of float alu accesses
system.cpu0.num_fp_insts                           24                       # number of float instructions
system.cpu0.num_fp_register_reads                  28                       # number of times the floating registers were read
system.cpu0.num_fp_register_writes                 24                       # number of times the floating registers were written
system.cpu0.num_func_calls                          0                       # number of times a function call or return occured
system.cpu0.num_idle_cycles                         0                       # Number of idle cycles
system.cpu0.num_int_alu_accesses                    7                       # Number of integer alu accesses
system.cpu0.num_int_insts                           7                       # number of integer instructions
system.cpu0.num_int_register_reads                 16                       # number of times the integer registers were read
system.cpu0.num_int_register_writes                 2                       # number of times the integer registers were written
system.cpu0.num_load_insts                          4                       # Number of load instructions
system.cpu0.num_mem_refs                            4                       # number of memory refs
system.cpu0.num_store_insts                         0                       # Number of store instructions
system.cpu0.num_vec_alu_accesses                    0                       # Number of vector alu accesses
system.cpu0.num_vec_insts                           0                       # number of vector instructions
system.cpu0.num_vec_register_reads                  0                       # number of times the vector registers were read
system.cpu0.num_vec_register_writes                 0                       # number of times the vector registers were written
system.cpu0.op_class::No_OpClass                    0      0.00%      0.00% # Class of executed instruction
system.cpu0.op_class::IntAlu                       11     40.74%     40.74% # Class of executed instruction
system.cpu0.op_class::IntMult                       0      0.00%     40.74% # Class of executed instruction
system.cpu0.op_class::IntDiv                        0      0.00%     40.74% # Class of executed instruction
system.cpu0.op_class::FloatAdd                      8     29.63%     70.37% # Class of executed instruction
system.cpu0.op_class::FloatCmp                      0      0.00%     70.37% # Class of executed instruction
system.cpu0.op_class::FloatCvt                      0      0.00%     70.37% # Class of executed instruction
system.cpu0.op_class::FloatMult                     0      0.00%     70.37% # Class of executed instruction
system.cpu0.op_class::FloatMultAcc                  0      0.00%     70.37% # Class of executed instruction
system.cpu0.op_class::FloatDiv                      0      0.00%     70.37% # Class of executed instruction
system.cpu0.op_class::FloatMisc                     0      0.00%     70.37% # Class of executed instruction
system.cpu0.op_class::FloatSqrt                     0      0.00%     70.37% # Class of executed instruction
system.cpu0.op_class::SimdAdd                       0      0.00%     70.37% # Class of executed instruction
system.cpu0.op_class::SimdAddAcc                    0      0.00%     70.37% # Class of executed instruction
system.cpu0.op_class::SimdAlu                       0      0.00%     70.37% # Class of executed instruction
system.cpu0.op_class::SimdCmp                       0      0.00%     70.37% # Class of executed instruction
system.cpu0.op_class::SimdCvt                       0      0.00%     70.37% # Class of executed instruction
system.cpu0.op_class::SimdMisc                      0      0.00%     70.37% # Class of executed instruction
system.cpu0.op_class::SimdMult                      0      0.00%     70.37% # Class of executed instruction
system.cpu0.op_class::SimdMultAcc                   0      0.00%     70.37% # Class of executed instruction
system.cpu0.op_class::SimdShift                     0      0.00%     70.37% # Class of executed instruction
system.cpu0.op_class::SimdShiftAcc                  0      0.00%     70.37% # Class of executed instruction
system.cpu0.op_class::SimdDiv                       0      0.00%     70.37% # Class of executed instruction
system.cpu0.op_class::SimdSqrt                      0      0.00%     70.37% # Class of executed instruction
system.cpu0.op_class::SimdFloatAdd                  0      0.00%     70.37% # Class of executed instruction
system.cpu0.op_class::SimdFloatAlu                  0      0.00%     70.37% # Class of executed instruction
system.cpu0.op_class::SimdFloatCmp                  4     14.81%     85.19% # Class of executed instruction
system.cpu0.op_class::SimdFloatCvt                  0      0.00%     85.19% # Class of executed instruction
system.cpu0.op_class::SimdFloatDiv                  0      0.00%     85.19% # Class of executed instruction
system.cpu0.op_class::SimdFloatMisc                 0      0.00%     85.19% # Class of executed instruction
system.cpu0.op_class::SimdFloatMult                 0      0.00%     85.19% # Class of executed instruction
system.cpu0.op_class::SimdFloatMultAcc              0      0.00%     85.19% # Class of executed instruction
system.cpu0.op_class::SimdFloatSqrt                 0      0.00%     85.19% # Class of executed instruction
system.cpu0.op_class::SimdReduceAdd                 0      0.00%     85.19% # Class of executed instruction
system.cpu0.op_class::SimdReduceAlu                 0      0.00%     85.19% # Class of executed instruction
system.cpu0.op_class::SimdReduceCmp                 0      0.00%     85.19% # Class of executed instruction
system.cpu0.op_class::SimdFloatReduceAdd            0      0.00%     85.19% # Class of executed instruction
system.cpu0.op_class::SimdFloatReduceCmp            0      0.00%     85.19% # Class of executed instruction
system.cpu0.op_class::SimdAes                       0      0.00%     85.19% # Class of executed instruction
system.cpu0.op_class::SimdAesMix                    0      0.00%     85.19% # Class of executed instruction
system.cpu0.op_class::SimdSha1Hash                  0      0.00%     85.19% # Class of executed instruction
system.cpu0.op_class::SimdSha1Hash2                 0      0.00%     85.19% # Class of executed instruction
system.cpu0.op_class::SimdSha256Hash                0      0.00%     85.19% # Class of executed instruction
system.cpu0.op_class::SimdSha256Hash2               0      0.00%     85.19% # Class of executed instruction
system.cpu0.op_class::SimdShaSigma2                 0      0.00%     85.19% # Class of executed instruction
system.cpu0.op_class::SimdShaSigma3                 0      0.00%     85.19% # Class of executed instruction
system.cpu0.op_class::SimdPredAlu                   0      0.00%     85.19% # Class of executed instruction
system.cpu0.op_class::MemRead                       0      0.00%     85.19% # Class of executed instruction
system.cpu0.op_class::MemWrite                      0      0.00%     85.19% # Class of executed instruction
system.cpu0.op_class::FloatMemRead                  4     14.81%    100.00% # Class of executed instruction
system.cpu0.op_class::FloatMemWrite                 0      0.00%    100.00% # Class of executed instruction
system.cpu0.op_class::IprAccess                     0      0.00%    100.00% # Class of executed instruction
system.cpu0.op_class::InstPrefetch                  0      0.00%    100.00% # Class of executed instruction
system.cpu0.op_class::total                        27                       # Class of executed instruction
system.cpu0.workload.numSyscalls                    0                       # Number of system calls
system.cpu1.Branches                                1                       # Number of branches fetched
system.cpu1.committedInsts                         16                       # Number of instructions committed
system.cpu1.committedOps                           23                       # Number of ops (including micro ops) committed
system.cpu1.idle_fraction                           0                       # Percentage of idle cycles
system.cpu1.l2bus.snoop_filter.hit_multi_requests           22                       # Number of requests hitting in the snoop filter with multiple (>1) holders of the requested data.
system.cpu1.l2bus.snoop_filter.hit_multi_snoops            1                       # Number of snoops hitting in the snoop filter with multiple (>1) holders of the requested data.
system.cpu1.l2bus.snoop_filter.hit_single_requests     12097718                       # Number of requests hitting in the snoop filter with a single holder of the requested data.
system.cpu1.l2bus.snoop_filter.hit_single_snoops      5252036                       # Number of snoops hitting in the snoop filter with a single holder of the requested data.
system.cpu1.l2bus.snoop_filter.tot_requests     24189385                       # Total number of requests made to the snoop filter.
system.cpu1.l2bus.snoop_filter.tot_snoops      5252037                       # Total number of snoops made to the snoop filter.
system.cpu1.mmucache.mmubus.snoop_filter.hit_multi_requests            0                       # Number of requests hitting in the snoop filter with multiple (>1) holders of the requested data.
system.cpu1.mmucache.mmubus.snoop_filter.hit_multi_snoops            0                       # Number of snoops hitting in the snoop filter with multiple (>1) holders of the requested data.
system.cpu1.mmucache.mmubus.snoop_filter.hit_single_requests            0                       # Number of requests hitting in the snoop filter with a single holder of the requested data.
system.cpu1.mmucache.mmubus.snoop_filter.hit_single_snoops            0                       # Number of snoops hitting in the snoop filter with a single holder of the requested data.
system.cpu1.mmucache.mmubus.snoop_filter.tot_requests            0                       # Total number of requests made to the snoop filter.
system.cpu1.mmucache.mmubus.snoop_filter.tot_snoops            0                       # Total number of snoops made to the snoop filter.
system.cpu1.not_idle_fraction                       1                       # Percentage of non-idle cycles
system.cpu1.numCycles                              31                       # number of cpu cycles simulated
system.cpu1.numWorkItemsCompleted                   0                       # number of work items this cpu completed
system.cpu1.numWorkItemsStarted                     0                       # number of work items this cpu started
system.cpu1.num_busy_cycles                        31                       # Number of busy cycles
system.cpu1.num_cc_register_reads                   7                       # number of times the CC registers were read
system.cpu1.num_cc_register_writes                  2                       # number of times the CC registers were written
system.cpu1.num_conditional_control_insts            1                       # number of instructions that are conditional controls
system.cpu1.num_fp_alu_accesses                    20                       # Number of float alu accesses
system.cpu1.num_fp_insts                           20                       # number of float instructions
system.cpu1.num_fp_register_reads                  43                       # number of times the floating registers were read
system.cpu1.num_fp_register_writes                 19                       # number of times the floating registers were written
system.cpu1.num_func_calls                          0                       # number of times a function call or return occured
system.cpu1.num_idle_cycles                         0                       # Number of idle cycles
system.cpu1.num_int_alu_accesses                    5                       # Number of integer alu accesses
system.cpu1.num_int_insts                           5                       # number of integer instructions
system.cpu1.num_int_register_reads                 10                       # number of times the integer registers were read
system.cpu1.num_int_register_writes                 2                       # number of times the integer registers were written
system.cpu1.num_load_insts                          2                       # Number of load instructions
system.cpu1.num_mem_refs                            2                       # number of memory refs
system.cpu1.num_store_insts                         0                       # Number of store instructions
system.cpu1.num_vec_alu_accesses                    0                       # Number of vector alu accesses
system.cpu1.num_vec_insts                           0                       # number of vector instructions
system.cpu1.num_vec_register_reads                  0                       # number of times the vector registers were read
system.cpu1.num_vec_register_writes                 0                       # number of times the vector registers were written
system.cpu1.op_class::No_OpClass                    0      0.00%      0.00% # Class of executed instruction
system.cpu1.op_class::IntAlu                        7     30.43%     30.43% # Class of executed instruction
system.cpu1.op_class::IntMult                       0      0.00%     30.43% # Class of executed instruction
system.cpu1.op_class::IntDiv                        0      0.00%     30.43% # Class of executed instruction
system.cpu1.op_class::FloatAdd                      2      8.70%     39.13% # Class of executed instruction
system.cpu1.op_class::FloatCmp                      0      0.00%     39.13% # Class of executed instruction
system.cpu1.op_class::FloatCvt                      0      0.00%     39.13% # Class of executed instruction
system.cpu1.op_class::FloatMult                     0      0.00%     39.13% # Class of executed instruction
system.cpu1.op_class::FloatMultAcc                  0      0.00%     39.13% # Class of executed instruction
system.cpu1.op_class::FloatDiv                      0      0.00%     39.13% # Class of executed instruction
system.cpu1.op_class::FloatMisc                     0      0.00%     39.13% # Class of executed instruction
system.cpu1.op_class::FloatSqrt                     0      0.00%     39.13% # Class of executed instruction
system.cpu1.op_class::SimdAdd                       0      0.00%     39.13% # Class of executed instruction
system.cpu1.op_class::SimdAddAcc                    0      0.00%     39.13% # Class of executed instruction
system.cpu1.op_class::SimdAlu                       0      0.00%     39.13% # Class of executed instruction
system.cpu1.op_class::SimdCmp                       0      0.00%     39.13% # Class of executed instruction
system.cpu1.op_class::SimdCvt                       0      0.00%     39.13% # Class of executed instruction
system.cpu1.op_class::SimdMisc                      0      0.00%     39.13% # Class of executed instruction
system.cpu1.op_class::SimdMult                      0      0.00%     39.13% # Class of executed instruction
system.cpu1.op_class::SimdMultAcc                   0      0.00%     39.13% # Class of executed instruction
system.cpu1.op_class::SimdShift                     0      0.00%     39.13% # Class of executed instruction
system.cpu1.op_class::SimdShiftAcc                  0      0.00%     39.13% # Class of executed instruction
system.cpu1.op_class::SimdDiv                       0      0.00%     39.13% # Class of executed instruction
system.cpu1.op_class::SimdSqrt                      0      0.00%     39.13% # Class of executed instruction
system.cpu1.op_class::SimdFloatAdd                  5     21.74%     60.87% # Class of executed instruction
system.cpu1.op_class::SimdFloatAlu                  0      0.00%     60.87% # Class of executed instruction
system.cpu1.op_class::SimdFloatCmp                  1      4.35%     65.22% # Class of executed instruction
system.cpu1.op_class::SimdFloatCvt                  1      4.35%     69.57% # Class of executed instruction
system.cpu1.op_class::SimdFloatDiv                  0      0.00%     69.57% # Class of executed instruction
system.cpu1.op_class::SimdFloatMisc                 0      0.00%     69.57% # Class of executed instruction
system.cpu1.op_class::SimdFloatMult                 5     21.74%     91.30% # Class of executed instruction
system.cpu1.op_class::SimdFloatMultAcc              0      0.00%     91.30% # Class of executed instruction
system.cpu1.op_class::SimdFloatSqrt                 0      0.00%     91.30% # Class of executed instruction
system.cpu1.op_class::SimdReduceAdd                 0      0.00%     91.30% # Class of executed instruction
system.cpu1.op_class::SimdReduceAlu                 0      0.00%     91.30% # Class of executed instruction
system.cpu1.op_class::SimdReduceCmp                 0      0.00%     91.30% # Class of executed instruction
system.cpu1.op_class::SimdFloatReduceAdd            0      0.00%     91.30% # Class of executed instruction
system.cpu1.op_class::SimdFloatReduceCmp            0      0.00%     91.30% # Class of executed instruction
system.cpu1.op_class::SimdAes                       0      0.00%     91.30% # Class of executed instruction
system.cpu1.op_class::SimdAesMix                    0      0.00%     91.30% # Class of executed instruction
system.cpu1.op_class::SimdSha1Hash                  0      0.00%     91.30% # Class of executed instruction
system.cpu1.op_class::SimdSha1Hash2                 0      0.00%     91.30% # Class of executed instruction
system.cpu1.op_class::SimdSha256Hash                0      0.00%     91.30% # Class of executed instruction
system.cpu1.op_class::SimdSha256Hash2               0      0.00%     91.30% # Class of executed instruction
system.cpu1.op_class::SimdShaSigma2                 0      0.00%     91.30% # Class of executed instruction
system.cpu1.op_class::SimdShaSigma3                 0      0.00%     91.30% # Class of executed instruction
system.cpu1.op_class::SimdPredAlu                   0      0.00%     91.30% # Class of executed instruction
system.cpu1.op_class::MemRead                       0      0.00%     91.30% # Class of executed instruction
system.cpu1.op_class::MemWrite                      0      0.00%     91.30% # Class of executed instruction
system.cpu1.op_class::FloatMemRead                  2      8.70%    100.00% # Class of executed instruction
system.cpu1.op_class::FloatMemWrite                 0      0.00%    100.00% # Class of executed instruction
system.cpu1.op_class::IprAccess                     0      0.00%    100.00% # Class of executed instruction
system.cpu1.op_class::InstPrefetch                  0      0.00%    100.00% # Class of executed instruction
system.cpu1.op_class::total                        23                       # Class of executed instruction
system.cpu1.workload.numSyscalls                    0                       # Number of system calls
system.cpu2.Branches                                1                       # Number of branches fetched
system.cpu2.committedInsts                         13                       # Number of instructions committed
system.cpu2.committedOps                           27                       # Number of ops (including micro ops) committed
system.cpu2.idle_fraction                           0                       # Percentage of idle cycles
system.cpu2.l2bus.snoop_filter.hit_multi_requests           16                       # Number of requests hitting in the snoop filter with multiple (>1) holders of the requested data.
system.cpu2.l2bus.snoop_filter.hit_multi_snoops            0                       # Number of snoops hitting in the snoop filter with multiple (>1) holders of the requested data.
system.cpu2.l2bus.snoop_filter.hit_single_requests     12211022                       # Number of requests hitting in the snoop filter with a single holder of the requested data.
system.cpu2.l2bus.snoop_filter.hit_single_snoops         3482                       # Number of snoops hitting in the snoop filter with a single holder of the requested data.
system.cpu2.l2bus.snoop_filter.tot_requests     24419308                       # Total number of requests made to the snoop filter.
system.cpu2.l2bus.snoop_filter.tot_snoops         3482                       # Total number of snoops made to the snoop filter.
system.cpu2.mmucache.mmubus.snoop_filter.hit_multi_requests            0                       # Number of requests hitting in the snoop filter with multiple (>1) holders of the requested data.
system.cpu2.mmucache.mmubus.snoop_filter.hit_multi_snoops            0                       # Number of snoops hitting in the snoop filter with multiple (>1) holders of the requested data.
system.cpu2.mmucache.mmubus.snoop_filter.hit_single_requests            0                       # Number of requests hitting in the snoop filter with a single holder of the requested data.
system.cpu2.mmucache.mmubus.snoop_filter.hit_single_snoops            0                       # Number of snoops hitting in the snoop filter with a single holder of the requested data.
system.cpu2.mmucache.mmubus.snoop_filter.tot_requests            0                       # Total number of requests made to the snoop filter.
system.cpu2.mmucache.mmubus.snoop_filter.tot_snoops            0                       # Total number of snoops made to the snoop filter.
system.cpu2.not_idle_fraction                       1                       # Percentage of non-idle cycles
system.cpu2.numCycles                              33                       # number of cpu cycles simulated
system.cpu2.numWorkItemsCompleted                   0                       # number of work items this cpu completed
system.cpu2.numWorkItemsStarted                     0                       # number of work items this cpu started
system.cpu2.num_busy_cycles                        33                       # Number of busy cycles
system.cpu2.num_cc_register_reads                   5                       # number of times the CC registers were read
system.cpu2.num_conditional_control_insts            1                       # number of instructions that are conditional controls
system.cpu2.num_fp_alu_accesses                    24                       # Number of float alu accesses
system.cpu2.num_fp_insts                           24                       # number of float instructions
system.cpu2.num_fp_register_reads                  28                       # number of times the floating registers were read
system.cpu2.num_fp_register_writes                 24                       # number of times the floating registers were written
system.cpu2.num_func_calls                          0                       # number of times a function call or return occured
system.cpu2.num_idle_cycles                         0                       # Number of idle cycles
system.cpu2.num_int_alu_accesses                    7                       # Number of integer alu accesses
system.cpu2.num_int_insts                           7                       # number of integer instructions
system.cpu2.num_int_register_reads                 16                       # number of times the integer registers were read
system.cpu2.num_int_register_writes                 2                       # number of times the integer registers were written
system.cpu2.num_load_insts                          4                       # Number of load instructions
system.cpu2.num_mem_refs                            4                       # number of memory refs
system.cpu2.num_store_insts                         0                       # Number of store instructions
system.cpu2.num_vec_alu_accesses                    0                       # Number of vector alu accesses
system.cpu2.num_vec_insts                           0                       # number of vector instructions
system.cpu2.num_vec_register_reads                  0                       # number of times the vector registers were read
system.cpu2.num_vec_register_writes                 0                       # number of times the vector registers were written
system.cpu2.op_class::No_OpClass                    0      0.00%      0.00% # Class of executed instruction
system.cpu2.op_class::IntAlu                       11     40.74%     40.74% # Class of executed instruction
system.cpu2.op_class::IntMult                       0      0.00%     40.74% # Class of executed instruction
system.cpu2.op_class::IntDiv                        0      0.00%     40.74% # Class of executed instruction
system.cpu2.op_class::FloatAdd                      8     29.63%     70.37% # Class of executed instruction
system.cpu2.op_class::FloatCmp                      0      0.00%     70.37% # Class of executed instruction
system.cpu2.op_class::FloatCvt                      0      0.00%     70.37% # Class of executed instruction
system.cpu2.op_class::FloatMult                     0      0.00%     70.37% # Class of executed instruction
system.cpu2.op_class::FloatMultAcc                  0      0.00%     70.37% # Class of executed instruction
system.cpu2.op_class::FloatDiv                      0      0.00%     70.37% # Class of executed instruction
system.cpu2.op_class::FloatMisc                     0      0.00%     70.37% # Class of executed instruction
system.cpu2.op_class::FloatSqrt                     0      0.00%     70.37% # Class of executed instruction
system.cpu2.op_class::SimdAdd                       0      0.00%     70.37% # Class of executed instruction
system.cpu2.op_class::SimdAddAcc                    0      0.00%     70.37% # Class of executed instruction
system.cpu2.op_class::SimdAlu                       0      0.00%     70.37% # Class of executed instruction
system.cpu2.op_class::SimdCmp                       0      0.00%     70.37% # Class of executed instruction
system.cpu2.op_class::SimdCvt                       0      0.00%     70.37% # Class of executed instruction
system.cpu2.op_class::SimdMisc                      0      0.00%     70.37% # Class of executed instruction
system.cpu2.op_class::SimdMult                      0      0.00%     70.37% # Class of executed instruction
system.cpu2.op_class::SimdMultAcc                   0      0.00%     70.37% # Class of executed instruction
system.cpu2.op_class::SimdShift                     0      0.00%     70.37% # Class of executed instruction
system.cpu2.op_class::SimdShiftAcc                  0      0.00%     70.37% # Class of executed instruction
system.cpu2.op_class::SimdDiv                       0      0.00%     70.37% # Class of executed instruction
system.cpu2.op_class::SimdSqrt                      0      0.00%     70.37% # Class of executed instruction
system.cpu2.op_class::SimdFloatAdd                  0      0.00%     70.37% # Class of executed instruction
system.cpu2.op_class::SimdFloatAlu                  0      0.00%     70.37% # Class of executed instruction
system.cpu2.op_class::SimdFloatCmp                  4     14.81%     85.19% # Class of executed instruction
system.cpu2.op_class::SimdFloatCvt                  0      0.00%     85.19% # Class of executed instruction
system.cpu2.op_class::SimdFloatDiv                  0      0.00%     85.19% # Class of executed instruction
system.cpu2.op_class::SimdFloatMisc                 0      0.00%     85.19% # Class of executed instruction
system.cpu2.op_class::SimdFloatMult                 0      0.00%     85.19% # Class of executed instruction
system.cpu2.op_class::SimdFloatMultAcc              0      0.00%     85.19% # Class of executed instruction
system.cpu2.op_class::SimdFloatSqrt                 0      0.00%     85.19% # Class of executed instruction
system.cpu2.op_class::SimdReduceAdd                 0      0.00%     85.19% # Class of executed instruction
system.cpu2.op_class::SimdReduceAlu                 0      0.00%     85.19% # Class of executed instruction
system.cpu2.op_class::SimdReduceCmp                 0      0.00%     85.19% # Class of executed instruction
system.cpu2.op_class::SimdFloatReduceAdd            0      0.00%     85.19% # Class of executed instruction
system.cpu2.op_class::SimdFloatReduceCmp            0      0.00%     85.19% # Class of executed instruction
system.cpu2.op_class::SimdAes                       0      0.00%     85.19% # Class of executed instruction
system.cpu2.op_class::SimdAesMix                    0      0.00%     85.19% # Class of executed instruction
system.cpu2.op_class::SimdSha1Hash                  0      0.00%     85.19% # Class of executed instruction
system.cpu2.op_class::SimdSha1Hash2                 0      0.00%     85.19% # Class of executed instruction
system.cpu2.op_class::SimdSha256Hash                0      0.00%     85.19% # Class of executed instruction
system.cpu2.op_class::SimdSha256Hash2               0      0.00%     85.19% # Class of executed instruction
system.cpu2.op_class::SimdShaSigma2                 0      0.00%     85.19% # Class of executed instruction
system.cpu2.op_class::SimdShaSigma3                 0      0.00%     85.19% # Class of executed instruction
system.cpu2.op_class::SimdPredAlu                   0      0.00%     85.19% # Class of executed instruction
system.cpu2.op_class::MemRead                       0      0.00%     85.19% # Class of executed instruction
system.cpu2.op_class::MemWrite                      0      0.00%     85.19% # Class of executed instruction
system.cpu2.op_class::FloatMemRead                  4     14.81%    100.00% # Class of executed instruction
system.cpu2.op_class::FloatMemWrite                 0      0.00%    100.00% # Class of executed instruction
system.cpu2.op_class::IprAccess                     0      0.00%    100.00% # Class of executed instruction
system.cpu2.op_class::InstPrefetch                  0      0.00%    100.00% # Class of executed instruction
system.cpu2.op_class::total                        27                       # Class of executed instruction
system.cpu2.workload.numSyscalls                    0                       # Number of system calls
system.cpu3.committedInsts                         15                       # Number of instructions committed
system.cpu3.committedOps                           24                       # Number of ops (including micro ops) committed
system.cpu3.idle_fraction                           0                       # Percentage of idle cycles
system.cpu3.l2bus.snoop_filter.hit_multi_requests           11                       # Number of requests hitting in the snoop filter with multiple (>1) holders of the requested data.
system.cpu3.l2bus.snoop_filter.hit_multi_snoops            1                       # Number of snoops hitting in the snoop filter with multiple (>1) holders of the requested data.
system.cpu3.l2bus.snoop_filter.hit_single_requests     12109438                       # Number of requests hitting in the snoop filter with a single holder of the requested data.
system.cpu3.l2bus.snoop_filter.hit_single_snoops      5252655                       # Number of snoops hitting in the snoop filter with a single holder of the requested data.
system.cpu3.l2bus.snoop_filter.tot_requests     24212310                       # Total number of requests made to the snoop filter.
system.cpu3.l2bus.snoop_filter.tot_snoops      5252656                       # Total number of snoops made to the snoop filter.
system.cpu3.mmucache.mmubus.snoop_filter.hit_multi_requests            0                       # Number of requests hitting in the snoop filter with multiple (>1) holders of the requested data.
system.cpu3.mmucache.mmubus.snoop_filter.hit_multi_snoops            0                       # Number of snoops hitting in the snoop filter with multiple (>1) holders of the requested data.
system.cpu3.mmucache.mmubus.snoop_filter.hit_single_requests            0                       # Number of requests hitting in the snoop filter with a single holder of the requested data.
system.cpu3.mmucache.mmubus.snoop_filter.hit_single_snoops            0                       # Number of snoops hitting in the snoop filter with a single holder of the requested data.
system.cpu3.mmucache.mmubus.snoop_filter.tot_requests            0                       # Total number of requests made to the snoop filter.
system.cpu3.mmucache.mmubus.snoop_filter.tot_snoops            0                       # Total number of snoops made to the snoop filter.
system.cpu3.not_idle_fraction                       1                       # Percentage of non-idle cycles
system.cpu3.numCycles                              31                       # number of cpu cycles simulated
system.cpu3.numWorkItemsCompleted                   0                       # number of work items this cpu completed
system.cpu3.numWorkItemsStarted                     0                       # number of work items this cpu started
system.cpu3.num_busy_cycles                        31                       # Number of busy cycles
system.cpu3.num_cc_register_reads                   2                       # number of times the CC registers were read
system.cpu3.num_cc_register_writes                  2                       # number of times the CC registers were written
system.cpu3.num_conditional_control_insts            0                       # number of instructions that are conditional controls
system.cpu3.num_fp_alu_accesses                    24                       # Number of float alu accesses
system.cpu3.num_fp_insts                           24                       # number of float instructions
system.cpu3.num_fp_register_reads                  40                       # number of times the floating registers were read
system.cpu3.num_fp_register_writes                 23                       # number of times the floating registers were written
system.cpu3.num_func_calls                          0                       # number of times a function call or return occured
system.cpu3.num_idle_cycles                         0                       # Number of idle cycles
system.cpu3.num_int_alu_accesses                    5                       # Number of integer alu accesses
system.cpu3.num_int_insts                           5                       # number of integer instructions
system.cpu3.num_int_register_reads                 15                       # number of times the integer registers were read
system.cpu3.num_int_register_writes                 0                       # number of times the integer registers were written
system.cpu3.num_load_insts                          5                       # Number of load instructions
system.cpu3.num_mem_refs                            5                       # number of memory refs
system.cpu3.num_store_insts                         0                       # Number of store instructions
system.cpu3.num_vec_alu_accesses                    0                       # Number of vector alu accesses
system.cpu3.num_vec_insts                           0                       # number of vector instructions
system.cpu3.num_vec_register_reads                  0                       # number of times the vector registers were read
system.cpu3.num_vec_register_writes                 0                       # number of times the vector registers were written
system.cpu3.op_class::No_OpClass                    0      0.00%      0.00% # Class of executed instruction
system.cpu3.op_class::IntAlu                        4     16.67%     16.67% # Class of executed instruction
system.cpu3.op_class::IntMult                       0      0.00%     16.67% # Class of executed instruction
system.cpu3.op_class::IntDiv                        0      0.00%     16.67% # Class of executed instruction
system.cpu3.op_class::FloatAdd                      4     16.67%     33.33% # Class of executed instruction
system.cpu3.op_class::FloatCmp                      0      0.00%     33.33% # Class of executed instruction
system.cpu3.op_class::FloatCvt                      0      0.00%     33.33% # Class of executed instruction
system.cpu3.op_class::FloatMult                     0      0.00%     33.33% # Class of executed instruction
system.cpu3.op_class::FloatMultAcc                  0      0.00%     33.33% # Class of executed instruction
system.cpu3.op_class::FloatDiv                      0      0.00%     33.33% # Class of executed instruction
system.cpu3.op_class::FloatMisc                     0      0.00%     33.33% # Class of executed instruction
system.cpu3.op_class::FloatSqrt                     0      0.00%     33.33% # Class of executed instruction
system.cpu3.op_class::SimdAdd                       0      0.00%     33.33% # Class of executed instruction
system.cpu3.op_class::SimdAddAcc                    0      0.00%     33.33% # Class of executed instruction
system.cpu3.op_class::SimdAlu                       0      0.00%     33.33% # Class of executed instruction
system.cpu3.op_class::SimdCmp                       0      0.00%     33.33% # Class of executed instruction
system.cpu3.op_class::SimdCvt                       0      0.00%     33.33% # Class of executed instruction
system.cpu3.op_class::SimdMisc                      0      0.00%     33.33% # Class of executed instruction
system.cpu3.op_class::SimdMult                      0      0.00%     33.33% # Class of executed instruction
system.cpu3.op_class::SimdMultAcc                   0      0.00%     33.33% # Class of executed instruction
system.cpu3.op_class::SimdShift                     0      0.00%     33.33% # Class of executed instruction
system.cpu3.op_class::SimdShiftAcc                  0      0.00%     33.33% # Class of executed instruction
system.cpu3.op_class::SimdDiv                       0      0.00%     33.33% # Class of executed instruction
system.cpu3.op_class::SimdSqrt                      0      0.00%     33.33% # Class of executed instruction
system.cpu3.op_class::SimdFloatAdd                  6     25.00%     58.33% # Class of executed instruction
system.cpu3.op_class::SimdFloatAlu                  0      0.00%     58.33% # Class of executed instruction
system.cpu3.op_class::SimdFloatCmp                  1      4.17%     62.50% # Class of executed instruction
system.cpu3.op_class::SimdFloatCvt                  1      4.17%     66.67% # Class of executed instruction
system.cpu3.op_class::SimdFloatDiv                  0      0.00%     66.67% # Class of executed instruction
system.cpu3.op_class::SimdFloatMisc                 0      0.00%     66.67% # Class of executed instruction
system.cpu3.op_class::SimdFloatMult                 3     12.50%     79.17% # Class of executed instruction
system.cpu3.op_class::SimdFloatMultAcc              0      0.00%     79.17% # Class of executed instruction
system.cpu3.op_class::SimdFloatSqrt                 0      0.00%     79.17% # Class of executed instruction
system.cpu3.op_class::SimdReduceAdd                 0      0.00%     79.17% # Class of executed instruction
system.cpu3.op_class::SimdReduceAlu                 0      0.00%     79.17% # Class of executed instruction
system.cpu3.op_class::SimdReduceCmp                 0      0.00%     79.17% # Class of executed instruction
system.cpu3.op_class::SimdFloatReduceAdd            0      0.00%     79.17% # Class of executed instruction
system.cpu3.op_class::SimdFloatReduceCmp            0      0.00%     79.17% # Class of executed instruction
system.cpu3.op_class::SimdAes                       0      0.00%     79.17% # Class of executed instruction
system.cpu3.op_class::SimdAesMix                    0      0.00%     79.17% # Class of executed instruction
system.cpu3.op_class::SimdSha1Hash                  0      0.00%     79.17% # Class of executed instruction
system.cpu3.op_class::SimdSha1Hash2                 0      0.00%     79.17% # Class of executed instruction
system.cpu3.op_class::SimdSha256Hash                0      0.00%     79.17% # Class of executed instruction
system.cpu3.op_class::SimdSha256Hash2               0      0.00%     79.17% # Class of executed instruction
system.cpu3.op_class::SimdShaSigma2                 0      0.00%     79.17% # Class of executed instruction
system.cpu3.op_class::SimdShaSigma3                 0      0.00%     79.17% # Class of executed instruction
system.cpu3.op_class::SimdPredAlu                   0      0.00%     79.17% # Class of executed instruction
system.cpu3.op_class::MemRead                       0      0.00%     79.17% # Class of executed instruction
system.cpu3.op_class::MemWrite                      0      0.00%     79.17% # Class of executed instruction
system.cpu3.op_class::FloatMemRead                  5     20.83%    100.00% # Class of executed instruction
system.cpu3.op_class::FloatMemWrite                 0      0.00%    100.00% # Class of executed instruction
system.cpu3.op_class::IprAccess                     0      0.00%    100.00% # Class of executed instruction
system.cpu3.op_class::InstPrefetch                  0      0.00%    100.00% # Class of executed instruction
system.cpu3.op_class::total                        24                       # Class of executed instruction
system.cpu3.workload.numSyscalls                    0                       # Number of system calls
system.l3bus.snoop_filter.hit_multi_requests            0                       # Number of requests hitting in the snoop filter with multiple (>1) holders of the requested data.
system.l3bus.snoop_filter.hit_multi_snoops            0                       # Number of snoops hitting in the snoop filter with multiple (>1) holders of the requested data.
system.l3bus.snoop_filter.hit_single_requests     43035150                       # Number of requests hitting in the snoop filter with a single holder of the requested data.
system.l3bus.snoop_filter.hit_single_snoops            0                       # Number of snoops hitting in the snoop filter with a single holder of the requested data.
system.l3bus.snoop_filter.tot_requests       86049337                       # Total number of requests made to the snoop filter.
system.l3bus.snoop_filter.tot_snoops                0                       # Total number of snoops made to the snoop filter.
system.membus.snoop_filter.hit_multi_requests            0                       # Number of requests hitting in the snoop filter with multiple (>1) holders of the requested data.
system.membus.snoop_filter.hit_multi_snoops            0                       # Number of snoops hitting in the snoop filter with multiple (>1) holders of the requested data.
system.membus.snoop_filter.hit_single_requests     34439196                       # Number of requests hitting in the snoop filter with a single holder of the requested data.
system.membus.snoop_filter.hit_single_snoops            0                       # Number of snoops hitting in the snoop filter with a single holder of the requested data.
system.membus.snoop_filter.tot_requests      68952424                       # Total number of requests made to the snoop filter.
system.membus.snoop_filter.tot_snoops               0                       # Total number of snoops made to the snoop filter.
system.switch_cpus0.cc_regfile_reads        200469477                       # number of cc regfile reads
system.switch_cpus0.cc_regfile_writes       124089804                       # number of cc regfile writes
system.switch_cpus0.committedInsts          250000000                       # Number of Instructions Simulated
system.switch_cpus0.committedOps            446992435                       # Number of Ops (including micro ops) Simulated
system.switch_cpus0.cpi                      6.665820                       # CPI: Cycles Per Instruction
system.switch_cpus0.cpi_total                6.665820                       # CPI: Total CPI of All Threads
system.switch_cpus0.fp_regfile_reads        381795021                       # number of floating regfile reads
system.switch_cpus0.fp_regfile_writes       287558949                       # number of floating regfile writes
system.switch_cpus0.idleCycles                  40516                       # Total number of cycles that the CPU has spent unscheduled due to idling
system.switch_cpus0.iew.branchMispredicts       652838                       # Number of branch mispredicts detected at execute
system.switch_cpus0.iew.exec_branches        29623532                       # Number of branches executed
system.switch_cpus0.iew.exec_nop                    0                       # number of nop insts executed
system.switch_cpus0.iew.exec_rate            0.362117                       # Inst execution rate
system.switch_cpus0.iew.exec_refs           187624573                       # number of memory reference insts executed
system.switch_cpus0.iew.exec_stores          65127859                       # Number of stores executed
system.switch_cpus0.iew.exec_swp                    0                       # number of swp insts executed
system.switch_cpus0.iew.iewBlockCycles      309051115                       # Number of cycles IEW is blocking
system.switch_cpus0.iew.iewDispLoadInsts    116242016                       # Number of dispatched load instructions
system.switch_cpus0.iew.iewDispNonSpecInsts          121                       # Number of dispatched non-speculative instructions
system.switch_cpus0.iew.iewDispSquashedInsts         9382                       # Number of squashed instructions skipped by dispatch
system.switch_cpus0.iew.iewDispStoreInsts     66696488                       # Number of dispatched store instructions
system.switch_cpus0.iew.iewDispatchedInsts    607008780                       # Number of instructions dispatched to IQ
system.switch_cpus0.iew.iewExecLoadInsts    122496714                       # Number of load instructions executed
system.switch_cpus0.iew.iewExecSquashedInsts      1373404                       # Number of squashed instructions skipped in execute
system.switch_cpus0.iew.iewExecutedInsts    603451124                       # Number of executed instructions
system.switch_cpus0.iew.iewIQFullEvents       1645842                       # Number of times the IQ has become full, causing a stall
system.switch_cpus0.iew.iewIdleCycles               0                       # Number of cycles IEW is idle
system.switch_cpus0.iew.iewLSQFullEvents    335872290                       # Number of times the LSQ has become full, causing a stall
system.switch_cpus0.iew.iewSquashCycles       1694329                       # Number of cycles IEW is squashing
system.switch_cpus0.iew.iewUnblockCycles    338434619                       # Number of cycles IEW is unblocking
system.switch_cpus0.iew.memOrderViolationEvents         7430                       # Number of memory order violations
system.switch_cpus0.iew.predictedNotTakenIncorrect       324275                       # Number of branches that were predicted not taken incorrectly
system.switch_cpus0.iew.predictedTakenIncorrect       328563                       # Number of branches that were predicted taken incorrectly
system.switch_cpus0.iew.wb_consumers        557298685                       # num instructions consuming a value
system.switch_cpus0.iew.wb_count            580289891                       # cumulative count of insts written-back
system.switch_cpus0.iew.wb_fanout            0.618550                       # average fanout of values written-back
system.switch_cpus0.iew.wb_producers        344716913                       # num instructions producing a value
system.switch_cpus0.iew.wb_rate              0.348218                       # insts written-back per cycle
system.switch_cpus0.iew.wb_sent             593444786                       # cumulative count of insts sent to commit
system.switch_cpus0.int_regfile_reads       596476445                       # number of integer regfile reads
system.switch_cpus0.int_regfile_writes      192494329                       # number of integer regfile writes
system.switch_cpus0.ipc                      0.150019                       # IPC: Instructions Per Cycle
system.switch_cpus0.ipc_total                0.150019                       # IPC: Total IPC of All Threads
system.switch_cpus0.iq.FU_type_0::No_OpClass     13184390      2.18%      2.18% # Type of FU issued
system.switch_cpus0.iq.FU_type_0::IntAlu    250890007     41.48%     43.66% # Type of FU issued
system.switch_cpus0.iq.FU_type_0::IntMult            0      0.00%     43.66% # Type of FU issued
system.switch_cpus0.iq.FU_type_0::IntDiv            0      0.00%     43.66% # Type of FU issued
system.switch_cpus0.iq.FU_type_0::FloatAdd     73631522     12.17%     55.84% # Type of FU issued
system.switch_cpus0.iq.FU_type_0::FloatCmp            0      0.00%     55.84% # Type of FU issued
system.switch_cpus0.iq.FU_type_0::FloatCvt            0      0.00%     55.84% # Type of FU issued
system.switch_cpus0.iq.FU_type_0::FloatMult            0      0.00%     55.84% # Type of FU issued
system.switch_cpus0.iq.FU_type_0::FloatMultAcc            0      0.00%     55.84% # Type of FU issued
system.switch_cpus0.iq.FU_type_0::FloatDiv            0      0.00%     55.84% # Type of FU issued
system.switch_cpus0.iq.FU_type_0::FloatMisc            0      0.00%     55.84% # Type of FU issued
system.switch_cpus0.iq.FU_type_0::FloatSqrt            0      0.00%     55.84% # Type of FU issued
system.switch_cpus0.iq.FU_type_0::SimdAdd            0      0.00%     55.84% # Type of FU issued
system.switch_cpus0.iq.FU_type_0::SimdAddAcc            0      0.00%     55.84% # Type of FU issued
system.switch_cpus0.iq.FU_type_0::SimdAlu        58086      0.01%     55.84% # Type of FU issued
system.switch_cpus0.iq.FU_type_0::SimdCmp            0      0.00%     55.84% # Type of FU issued
system.switch_cpus0.iq.FU_type_0::SimdCvt            0      0.00%     55.84% # Type of FU issued
system.switch_cpus0.iq.FU_type_0::SimdMisc            0      0.00%     55.84% # Type of FU issued
system.switch_cpus0.iq.FU_type_0::SimdMult            0      0.00%     55.84% # Type of FU issued
system.switch_cpus0.iq.FU_type_0::SimdMultAcc            0      0.00%     55.84% # Type of FU issued
system.switch_cpus0.iq.FU_type_0::SimdShift            0      0.00%     55.84% # Type of FU issued
system.switch_cpus0.iq.FU_type_0::SimdShiftAcc            0      0.00%     55.84% # Type of FU issued
system.switch_cpus0.iq.FU_type_0::SimdDiv            0      0.00%     55.84% # Type of FU issued
system.switch_cpus0.iq.FU_type_0::SimdSqrt            0      0.00%     55.84% # Type of FU issued
system.switch_cpus0.iq.FU_type_0::SimdFloatAdd     28714715      4.75%     60.59% # Type of FU issued
system.switch_cpus0.iq.FU_type_0::SimdFloatAlu            0      0.00%     60.59% # Type of FU issued
system.switch_cpus0.iq.FU_type_0::SimdFloatCmp     29651503      4.90%     65.50% # Type of FU issued
system.switch_cpus0.iq.FU_type_0::SimdFloatCvt      5714152      0.94%     66.44% # Type of FU issued
system.switch_cpus0.iq.FU_type_0::SimdFloatDiv            0      0.00%     66.44% # Type of FU issued
system.switch_cpus0.iq.FU_type_0::SimdFloatMisc            0      0.00%     66.44% # Type of FU issued
system.switch_cpus0.iq.FU_type_0::SimdFloatMult     15003341      2.48%     68.92% # Type of FU issued
system.switch_cpus0.iq.FU_type_0::SimdFloatMultAcc            0      0.00%     68.92% # Type of FU issued
system.switch_cpus0.iq.FU_type_0::SimdFloatSqrt            0      0.00%     68.92% # Type of FU issued
system.switch_cpus0.iq.FU_type_0::SimdReduceAdd            0      0.00%     68.92% # Type of FU issued
system.switch_cpus0.iq.FU_type_0::SimdReduceAlu            0      0.00%     68.92% # Type of FU issued
system.switch_cpus0.iq.FU_type_0::SimdReduceCmp            0      0.00%     68.92% # Type of FU issued
system.switch_cpus0.iq.FU_type_0::SimdFloatReduceAdd            0      0.00%     68.92% # Type of FU issued
system.switch_cpus0.iq.FU_type_0::SimdFloatReduceCmp            0      0.00%     68.92% # Type of FU issued
system.switch_cpus0.iq.FU_type_0::SimdAes            0      0.00%     68.92% # Type of FU issued
system.switch_cpus0.iq.FU_type_0::SimdAesMix            0      0.00%     68.92% # Type of FU issued
system.switch_cpus0.iq.FU_type_0::SimdSha1Hash            0      0.00%     68.92% # Type of FU issued
system.switch_cpus0.iq.FU_type_0::SimdSha1Hash2            0      0.00%     68.92% # Type of FU issued
system.switch_cpus0.iq.FU_type_0::SimdSha256Hash            0      0.00%     68.92% # Type of FU issued
system.switch_cpus0.iq.FU_type_0::SimdSha256Hash2            0      0.00%     68.92% # Type of FU issued
system.switch_cpus0.iq.FU_type_0::SimdShaSigma2            0      0.00%     68.92% # Type of FU issued
system.switch_cpus0.iq.FU_type_0::SimdShaSigma3            0      0.00%     68.92% # Type of FU issued
system.switch_cpus0.iq.FU_type_0::SimdPredAlu            0      0.00%     68.92% # Type of FU issued
system.switch_cpus0.iq.FU_type_0::MemRead     27301090      4.51%     73.43% # Type of FU issued
system.switch_cpus0.iq.FU_type_0::MemWrite     21751007      3.60%     77.03% # Type of FU issued
system.switch_cpus0.iq.FU_type_0::FloatMemRead     95443614     15.78%     92.81% # Type of FU issued
system.switch_cpus0.iq.FU_type_0::FloatMemWrite     43481105      7.19%    100.00% # Type of FU issued
system.switch_cpus0.iq.FU_type_0::IprAccess            0      0.00%    100.00% # Type of FU issued
system.switch_cpus0.iq.FU_type_0::InstPrefetch            0      0.00%    100.00% # Type of FU issued
system.switch_cpus0.iq.FU_type_0::total     604824532                       # Type of FU issued
system.switch_cpus0.iq.fp_alu_accesses      360069804                       # Number of floating point alu accesses
system.switch_cpus0.iq.fp_inst_queue_reads    705175346                       # Number of floating instruction queue reads
system.switch_cpus0.iq.fp_inst_queue_wakeup_accesses    336674032                       # Number of floating instruction queue wakeup accesses
system.switch_cpus0.iq.fp_inst_queue_writes    389267097                       # Number of floating instruction queue writes
system.switch_cpus0.iq.fu_busy_cnt           24960050                       # FU busy when requested
system.switch_cpus0.iq.fu_busy_rate          0.041268                       # FU busy rate (busy events/executed inst)
system.switch_cpus0.iq.fu_full::No_OpClass            0      0.00%      0.00% # attempts to use FU when none available
system.switch_cpus0.iq.fu_full::IntAlu        1258555      5.04%      5.04% # attempts to use FU when none available
system.switch_cpus0.iq.fu_full::IntMult             0      0.00%      5.04% # attempts to use FU when none available
system.switch_cpus0.iq.fu_full::IntDiv              0      0.00%      5.04% # attempts to use FU when none available
system.switch_cpus0.iq.fu_full::FloatAdd        23307      0.09%      5.14% # attempts to use FU when none available
system.switch_cpus0.iq.fu_full::FloatCmp            0      0.00%      5.14% # attempts to use FU when none available
system.switch_cpus0.iq.fu_full::FloatCvt            0      0.00%      5.14% # attempts to use FU when none available
system.switch_cpus0.iq.fu_full::FloatMult            0      0.00%      5.14% # attempts to use FU when none available
system.switch_cpus0.iq.fu_full::FloatMultAcc            0      0.00%      5.14% # attempts to use FU when none available
system.switch_cpus0.iq.fu_full::FloatDiv            0      0.00%      5.14% # attempts to use FU when none available
system.switch_cpus0.iq.fu_full::FloatMisc            0      0.00%      5.14% # attempts to use FU when none available
system.switch_cpus0.iq.fu_full::FloatSqrt            0      0.00%      5.14% # attempts to use FU when none available
system.switch_cpus0.iq.fu_full::SimdAdd             0      0.00%      5.14% # attempts to use FU when none available
system.switch_cpus0.iq.fu_full::SimdAddAcc            0      0.00%      5.14% # attempts to use FU when none available
system.switch_cpus0.iq.fu_full::SimdAlu             0      0.00%      5.14% # attempts to use FU when none available
system.switch_cpus0.iq.fu_full::SimdCmp             0      0.00%      5.14% # attempts to use FU when none available
system.switch_cpus0.iq.fu_full::SimdCvt             0      0.00%      5.14% # attempts to use FU when none available
system.switch_cpus0.iq.fu_full::SimdMisc            0      0.00%      5.14% # attempts to use FU when none available
system.switch_cpus0.iq.fu_full::SimdMult            0      0.00%      5.14% # attempts to use FU when none available
system.switch_cpus0.iq.fu_full::SimdMultAcc            0      0.00%      5.14% # attempts to use FU when none available
system.switch_cpus0.iq.fu_full::SimdShift            0      0.00%      5.14% # attempts to use FU when none available
system.switch_cpus0.iq.fu_full::SimdShiftAcc            0      0.00%      5.14% # attempts to use FU when none available
system.switch_cpus0.iq.fu_full::SimdDiv             0      0.00%      5.14% # attempts to use FU when none available
system.switch_cpus0.iq.fu_full::SimdSqrt            0      0.00%      5.14% # attempts to use FU when none available
system.switch_cpus0.iq.fu_full::SimdFloatAdd       214789      0.86%      6.00% # attempts to use FU when none available
system.switch_cpus0.iq.fu_full::SimdFloatAlu            0      0.00%      6.00% # attempts to use FU when none available
system.switch_cpus0.iq.fu_full::SimdFloatCmp       899693      3.60%      9.60% # attempts to use FU when none available
system.switch_cpus0.iq.fu_full::SimdFloatCvt            0      0.00%      9.60% # attempts to use FU when none available
system.switch_cpus0.iq.fu_full::SimdFloatDiv            0      0.00%      9.60% # attempts to use FU when none available
system.switch_cpus0.iq.fu_full::SimdFloatMisc            0      0.00%      9.60% # attempts to use FU when none available
system.switch_cpus0.iq.fu_full::SimdFloatMult        25526      0.10%      9.70% # attempts to use FU when none available
system.switch_cpus0.iq.fu_full::SimdFloatMultAcc            0      0.00%      9.70% # attempts to use FU when none available
system.switch_cpus0.iq.fu_full::SimdFloatSqrt            0      0.00%      9.70% # attempts to use FU when none available
system.switch_cpus0.iq.fu_full::SimdReduceAdd            0      0.00%      9.70% # attempts to use FU when none available
system.switch_cpus0.iq.fu_full::SimdReduceAlu            0      0.00%      9.70% # attempts to use FU when none available
system.switch_cpus0.iq.fu_full::SimdReduceCmp            0      0.00%      9.70% # attempts to use FU when none available
system.switch_cpus0.iq.fu_full::SimdFloatReduceAdd            0      0.00%      9.70% # attempts to use FU when none available
system.switch_cpus0.iq.fu_full::SimdFloatReduceCmp            0      0.00%      9.70% # attempts to use FU when none available
system.switch_cpus0.iq.fu_full::SimdAes             0      0.00%      9.70% # attempts to use FU when none available
system.switch_cpus0.iq.fu_full::SimdAesMix            0      0.00%      9.70% # attempts to use FU when none available
system.switch_cpus0.iq.fu_full::SimdSha1Hash            0      0.00%      9.70% # attempts to use FU when none available
system.switch_cpus0.iq.fu_full::SimdSha1Hash2            0      0.00%      9.70% # attempts to use FU when none available
system.switch_cpus0.iq.fu_full::SimdSha256Hash            0      0.00%      9.70% # attempts to use FU when none available
system.switch_cpus0.iq.fu_full::SimdSha256Hash2            0      0.00%      9.70% # attempts to use FU when none available
system.switch_cpus0.iq.fu_full::SimdShaSigma2            0      0.00%      9.70% # attempts to use FU when none available
system.switch_cpus0.iq.fu_full::SimdShaSigma3            0      0.00%      9.70% # attempts to use FU when none available
system.switch_cpus0.iq.fu_full::SimdPredAlu            0      0.00%      9.70% # attempts to use FU when none available
system.switch_cpus0.iq.fu_full::MemRead       1823636      7.31%     17.01% # attempts to use FU when none available
system.switch_cpus0.iq.fu_full::MemWrite      6917464     27.71%     44.72% # attempts to use FU when none available
system.switch_cpus0.iq.fu_full::FloatMemRead     10058193     40.30%     85.02% # attempts to use FU when none available
system.switch_cpus0.iq.fu_full::FloatMemWrite      3738887     14.98%    100.00% # attempts to use FU when none available
system.switch_cpus0.iq.fu_full::IprAccess            0      0.00%    100.00% # attempts to use FU when none available
system.switch_cpus0.iq.fu_full::InstPrefetch            0      0.00%    100.00% # attempts to use FU when none available
system.switch_cpus0.iq.int_alu_accesses     256530388                       # Number of integer alu accesses
system.switch_cpus0.iq.int_inst_queue_reads   2196041204                       # Number of integer instruction queue reads
system.switch_cpus0.iq.int_inst_queue_wakeup_accesses    243615859                       # Number of integer instruction queue wakeup accesses
system.switch_cpus0.iq.int_inst_queue_writes    377765076                       # Number of integer instruction queue writes
system.switch_cpus0.iq.iqInstsAdded         606998341                       # Number of instructions added to the IQ (excludes non-spec)
system.switch_cpus0.iq.iqInstsIssued        604824532                       # Number of instructions issued
system.switch_cpus0.iq.iqNonSpecInstsAdded        10439                       # Number of non-speculative instructions added to the IQ
system.switch_cpus0.iq.iqSquashedInstsExamined    160016178                       # Number of squashed instructions iterated over during squash; mainly for profiling
system.switch_cpus0.iq.iqSquashedInstsIssued       192929                       # Number of squashed instructions issued
system.switch_cpus0.iq.iqSquashedNonSpecRemoved         9397                       # Number of squashed non-spec instructions that were removed
system.switch_cpus0.iq.iqSquashedOperandsExamined     52562509                       # Number of squashed operands that are examined and possibly removed from graph
system.switch_cpus0.iq.issued_per_cycle::samples   1666414511                       # Number of insts issued each cycle
system.switch_cpus0.iq.issued_per_cycle::mean     0.362950                       # Number of insts issued each cycle
system.switch_cpus0.iq.issued_per_cycle::stdev     1.309841                       # Number of insts issued each cycle
system.switch_cpus0.iq.issued_per_cycle::underflows            0      0.00%      0.00% # Number of insts issued each cycle
system.switch_cpus0.iq.issued_per_cycle::0   1500016520     90.01%     90.01% # Number of insts issued each cycle
system.switch_cpus0.iq.issued_per_cycle::1     40255946      2.42%     92.43% # Number of insts issued each cycle
system.switch_cpus0.iq.issued_per_cycle::2     28238905      1.69%     94.12% # Number of insts issued each cycle
system.switch_cpus0.iq.issued_per_cycle::3     20746583      1.24%     95.37% # Number of insts issued each cycle
system.switch_cpus0.iq.issued_per_cycle::4     20282081      1.22%     96.59% # Number of insts issued each cycle
system.switch_cpus0.iq.issued_per_cycle::5     16054037      0.96%     97.55% # Number of insts issued each cycle
system.switch_cpus0.iq.issued_per_cycle::6     15961151      0.96%     98.51% # Number of insts issued each cycle
system.switch_cpus0.iq.issued_per_cycle::7     10188692      0.61%     99.12% # Number of insts issued each cycle
system.switch_cpus0.iq.issued_per_cycle::8     14670596      0.88%    100.00% # Number of insts issued each cycle
system.switch_cpus0.iq.issued_per_cycle::overflows            0      0.00%    100.00% # Number of insts issued each cycle
system.switch_cpus0.iq.issued_per_cycle::min_value            0                       # Number of insts issued each cycle
system.switch_cpus0.iq.issued_per_cycle::max_value            8                       # Number of insts issued each cycle
system.switch_cpus0.iq.issued_per_cycle::total   1666414511                       # Number of insts issued each cycle
system.switch_cpus0.iq.rate                  0.362941                       # Inst issue rate
system.switch_cpus0.iq.vec_alu_accesses             0                       # Number of vector alu accesses
system.switch_cpus0.iq.vec_inst_queue_reads            0                       # Number of vector instruction queue reads
system.switch_cpus0.iq.vec_inst_queue_wakeup_accesses            0                       # Number of vector instruction queue wakeup accesses
system.switch_cpus0.iq.vec_inst_queue_writes            0                       # Number of vector instruction queue writes
system.switch_cpus0.memDep0.conflictingLoads     17465929                       # Number of conflicting loads.
system.switch_cpus0.memDep0.conflictingStores     16771521                       # Number of conflicting stores.
system.switch_cpus0.memDep0.insertedLoads    116242016                       # Number of loads inserted to the mem dependence unit.
system.switch_cpus0.memDep0.insertedStores     66696488                       # Number of stores inserted to the mem dependence unit.
system.switch_cpus0.misc_regfile_reads      248573539                       # number of misc regfile reads
system.switch_cpus0.misc_regfile_writes             1                       # number of misc regfile writes
system.switch_cpus0.numCycles              1666455027                       # number of cpu cycles simulated
system.switch_cpus0.numWorkItemsCompleted            0                       # number of work items this cpu completed
system.switch_cpus0.numWorkItemsStarted             0                       # number of work items this cpu started
system.switch_cpus0.timesIdled                    143                       # Number of times that the entire CPU went into an idle state and unscheduled itself
system.switch_cpus1.cc_regfile_reads        192474503                       # number of cc regfile reads
system.switch_cpus1.cc_regfile_writes       120035810                       # number of cc regfile writes
system.switch_cpus1.committedInsts          240094013                       # Number of Instructions Simulated
system.switch_cpus1.committedOps            428594792                       # Number of Ops (including micro ops) Simulated
system.switch_cpus1.cpi                      6.940844                       # CPI: Cycles Per Instruction
system.switch_cpus1.cpi_total                6.940844                       # CPI: Total CPI of All Threads
system.switch_cpus1.fp_regfile_reads        369846269                       # number of floating regfile reads
system.switch_cpus1.fp_regfile_writes       278216526                       # number of floating regfile writes
system.switch_cpus1.idleCycles                  47519                       # Total number of cycles that the CPU has spent unscheduled due to idling
system.switch_cpus1.iew.branchMispredicts       602745                       # Number of branch mispredicts detected at execute
system.switch_cpus1.iew.exec_branches        28229215                       # Number of branches executed
system.switch_cpus1.iew.exec_nop                    0                       # number of nop insts executed
system.switch_cpus1.iew.exec_rate            0.349221                       # Inst execution rate
system.switch_cpus1.iew.exec_refs           181551329                       # number of memory reference insts executed
system.switch_cpus1.iew.exec_stores          63313288                       # Number of stores executed
system.switch_cpus1.iew.exec_swp                    0                       # number of swp insts executed
system.switch_cpus1.iew.iewBlockCycles      304476996                       # Number of cycles IEW is blocking
system.switch_cpus1.iew.iewDispLoadInsts    112429904                       # Number of dispatched load instructions
system.switch_cpus1.iew.iewDispNonSpecInsts           87                       # Number of dispatched non-speculative instructions
system.switch_cpus1.iew.iewDispSquashedInsts         9193                       # Number of squashed instructions skipped by dispatch
system.switch_cpus1.iew.iewDispStoreInsts     64750497                       # Number of dispatched store instructions
system.switch_cpus1.iew.iewDispatchedInsts    585252696                       # Number of instructions dispatched to IQ
system.switch_cpus1.iew.iewExecLoadInsts    118238041                       # Number of load instructions executed
system.switch_cpus1.iew.iewExecSquashedInsts      1217523                       # Number of squashed instructions skipped in execute
system.switch_cpus1.iew.iewExecutedInsts    581961895                       # Number of executed instructions
system.switch_cpus1.iew.iewIQFullEvents       1704228                       # Number of times the IQ has become full, causing a stall
system.switch_cpus1.iew.iewIdleCycles               0                       # Number of cycles IEW is idle
system.switch_cpus1.iew.iewLSQFullEvents    345361669                       # Number of times the LSQ has become full, causing a stall
system.switch_cpus1.iew.iewSquashCycles       1634538                       # Number of cycles IEW is squashing
system.switch_cpus1.iew.iewUnblockCycles    348025759                       # Number of cycles IEW is unblocking
system.switch_cpus1.iew.memOrderViolationEvents         5896                       # Number of memory order violations
system.switch_cpus1.iew.predictedNotTakenIncorrect       302816                       # Number of branches that were predicted not taken incorrectly
system.switch_cpus1.iew.predictedTakenIncorrect       299929                       # Number of branches that were predicted taken incorrectly
system.switch_cpus1.iew.wb_consumers        535226102                       # num instructions consuming a value
system.switch_cpus1.iew.wb_count            559517291                       # cumulative count of insts written-back
system.switch_cpus1.iew.wb_fanout            0.619120                       # average fanout of values written-back
system.switch_cpus1.iew.wb_producers        331369012                       # num instructions producing a value
system.switch_cpus1.iew.wb_rate              0.335753                       # insts written-back per cycle
system.switch_cpus1.iew.wb_sent             572474761                       # cumulative count of insts sent to commit
system.switch_cpus1.int_regfile_reads       574253821                       # number of integer regfile reads
system.switch_cpus1.int_regfile_writes      184492529                       # number of integer regfile writes
system.switch_cpus1.ipc                      0.144075                       # IPC: Instructions Per Cycle
system.switch_cpus1.ipc_total                0.144075                       # IPC: Total IPC of All Threads
system.switch_cpus1.iq.FU_type_0::No_OpClass     12945602      2.22%      2.22% # Type of FU issued
system.switch_cpus1.iq.FU_type_0::IntAlu    240949264     41.32%     43.54% # Type of FU issued
system.switch_cpus1.iq.FU_type_0::IntMult            0      0.00%     43.54% # Type of FU issued
system.switch_cpus1.iq.FU_type_0::IntDiv            0      0.00%     43.54% # Type of FU issued
system.switch_cpus1.iq.FU_type_0::FloatAdd     70874758     12.15%     55.69% # Type of FU issued
system.switch_cpus1.iq.FU_type_0::FloatCmp            0      0.00%     55.69% # Type of FU issued
system.switch_cpus1.iq.FU_type_0::FloatCvt           14      0.00%     55.69% # Type of FU issued
system.switch_cpus1.iq.FU_type_0::FloatMult            0      0.00%     55.69% # Type of FU issued
system.switch_cpus1.iq.FU_type_0::FloatMultAcc            0      0.00%     55.69% # Type of FU issued
system.switch_cpus1.iq.FU_type_0::FloatDiv            0      0.00%     55.69% # Type of FU issued
system.switch_cpus1.iq.FU_type_0::FloatMisc            0      0.00%     55.69% # Type of FU issued
system.switch_cpus1.iq.FU_type_0::FloatSqrt            0      0.00%     55.69% # Type of FU issued
system.switch_cpus1.iq.FU_type_0::SimdAdd            0      0.00%     55.69% # Type of FU issued
system.switch_cpus1.iq.FU_type_0::SimdAddAcc            0      0.00%     55.69% # Type of FU issued
system.switch_cpus1.iq.FU_type_0::SimdAlu        42737      0.01%     55.70% # Type of FU issued
system.switch_cpus1.iq.FU_type_0::SimdCmp            0      0.00%     55.70% # Type of FU issued
system.switch_cpus1.iq.FU_type_0::SimdCvt            0      0.00%     55.70% # Type of FU issued
system.switch_cpus1.iq.FU_type_0::SimdMisc            0      0.00%     55.70% # Type of FU issued
system.switch_cpus1.iq.FU_type_0::SimdMult            0      0.00%     55.70% # Type of FU issued
system.switch_cpus1.iq.FU_type_0::SimdMultAcc            0      0.00%     55.70% # Type of FU issued
system.switch_cpus1.iq.FU_type_0::SimdShift            0      0.00%     55.70% # Type of FU issued
system.switch_cpus1.iq.FU_type_0::SimdShiftAcc            0      0.00%     55.70% # Type of FU issued
system.switch_cpus1.iq.FU_type_0::SimdDiv            0      0.00%     55.70% # Type of FU issued
system.switch_cpus1.iq.FU_type_0::SimdSqrt            0      0.00%     55.70% # Type of FU issued
system.switch_cpus1.iq.FU_type_0::SimdFloatAdd     27814642      4.77%     60.47% # Type of FU issued
system.switch_cpus1.iq.FU_type_0::SimdFloatAlu            0      0.00%     60.47% # Type of FU issued
system.switch_cpus1.iq.FU_type_0::SimdFloatCmp     28691675      4.92%     65.39% # Type of FU issued
system.switch_cpus1.iq.FU_type_0::SimdFloatCvt      5467255      0.94%     66.32% # Type of FU issued
system.switch_cpus1.iq.FU_type_0::SimdFloatDiv            0      0.00%     66.32% # Type of FU issued
system.switch_cpus1.iq.FU_type_0::SimdFloatMisc            0      0.00%     66.32% # Type of FU issued
system.switch_cpus1.iq.FU_type_0::SimdFloatMult     14538423      2.49%     68.82% # Type of FU issued
system.switch_cpus1.iq.FU_type_0::SimdFloatMultAcc            0      0.00%     68.82% # Type of FU issued
system.switch_cpus1.iq.FU_type_0::SimdFloatSqrt            0      0.00%     68.82% # Type of FU issued
system.switch_cpus1.iq.FU_type_0::SimdReduceAdd            0      0.00%     68.82% # Type of FU issued
system.switch_cpus1.iq.FU_type_0::SimdReduceAlu            0      0.00%     68.82% # Type of FU issued
system.switch_cpus1.iq.FU_type_0::SimdReduceCmp            0      0.00%     68.82% # Type of FU issued
system.switch_cpus1.iq.FU_type_0::SimdFloatReduceAdd            0      0.00%     68.82% # Type of FU issued
system.switch_cpus1.iq.FU_type_0::SimdFloatReduceCmp            0      0.00%     68.82% # Type of FU issued
system.switch_cpus1.iq.FU_type_0::SimdAes            0      0.00%     68.82% # Type of FU issued
system.switch_cpus1.iq.FU_type_0::SimdAesMix            0      0.00%     68.82% # Type of FU issued
system.switch_cpus1.iq.FU_type_0::SimdSha1Hash            0      0.00%     68.82% # Type of FU issued
[...]
system.switch_cpus3.commit.numCommittedDist::0   1545043575     93.75%     93.75% # Number of insts commited each cycle
system.switch_cpus3.commit.numCommittedDist::1     36395439      2.21%     95.96% # Number of insts commited each cycle
system.switch_cpus3.commit.numCommittedDist::2      5123867      0.31%     96.27% # Number of insts commited each cycle
system.switch_cpus3.commit.numCommittedDist::3      9076733      0.55%     96.82% # Number of insts commited each cycle
system.switch_cpus3.commit.numCommittedDist::4      9753194      0.59%     97.41% # Number of insts commited each cycle
system.switch_cpus3.commit.numCommittedDist::5      3406197      0.21%     97.62% # Number of insts commited each cycle
system.switch_cpus3.commit.numCommittedDist::6      4021152      0.24%     97.86% # Number of insts commited each cycle
system.switch_cpus3.commit.numCommittedDist::7      3963070      0.24%     98.10% # Number of insts commited each cycle
system.switch_cpus3.commit.numCommittedDist::8     31303396      1.90%    100.00% # Number of insts commited each cycle
system.switch_cpus3.commit.numCommittedDist::overflows            0      0.00%    100.00% # Number of insts commited each cycle
system.switch_cpus3.commit.numCommittedDist::min_value            0                       # Number of insts commited each cycle
system.switch_cpus3.commit.numCommittedDist::max_value            8                       # Number of insts commited each cycle
system.switch_cpus3.commit.numCommittedDist::total   1648086623                       # Number of insts commited each cycle
system.switch_cpus3.commit.instsCommitted    242017116                       # Number of instructions committed
system.switch_cpus3.commit.opsCommitted     432212703                       # Number of ops (including micro ops) committed
system.switch_cpus3.commit.memRefs          104325721                       # Number of memory references committed
system.switch_cpus3.commit.loads             77661527                       # Number of loads committed
system.switch_cpus3.commit.amos                     0                       # Number of atomic instructions committed
system.switch_cpus3.commit.membars                 80                       # Number of memory barriers committed
system.switch_cpus3.commit.branches          22628056                       # Number of branches committed
system.switch_cpus3.commit.vector                   0                       # Number of committed Vector instructions.
system.switch_cpus3.commit.floating         279133857                       # Number of committed floating point instructions.
system.switch_cpus3.commit.integer          233507925                       # Number of committed integer instructions.
system.switch_cpus3.commit.functionCalls       768756                       # Number of function calls committed.
system.switch_cpus3.commit.committedInstType_0::No_OpClass       216034      0.05%      0.05% # Class of committed instruction
system.switch_cpus3.commit.committedInstType_0::IntAlu    180487524     41.76%     41.81% # Class of committed instruction
system.switch_cpus3.commit.committedInstType_0::IntMult            0      0.00%     41.81% # Class of committed instruction
system.switch_cpus3.commit.committedInstType_0::IntDiv            0      0.00%     41.81% # Class of committed instruction
system.switch_cpus3.commit.committedInstType_0::FloatAdd     70551194     16.32%     58.13% # Class of committed instruction
system.switch_cpus3.commit.committedInstType_0::FloatCmp            0      0.00%     58.13% # Class of committed instruction
system.switch_cpus3.commit.committedInstType_0::FloatCvt            0      0.00%     58.13% # Class of committed instruction
system.switch_cpus3.commit.committedInstType_0::FloatMult            0      0.00%     58.13% # Class of committed instruction
system.switch_cpus3.commit.committedInstType_0::FloatMultAcc            0      0.00%     58.13% # Class of committed instruction
system.switch_cpus3.commit.committedInstType_0::FloatDiv            0      0.00%     58.13% # Class of committed instruction
system.switch_cpus3.commit.committedInstType_0::FloatMisc            0      0.00%     58.13% # Class of committed instruction
system.switch_cpus3.commit.committedInstType_0::FloatSqrt            0      0.00%     58.13% # Class of committed instruction
system.switch_cpus3.commit.committedInstType_0::SimdAdd            0      0.00%     58.13% # Class of committed instruction
system.switch_cpus3.commit.committedInstType_0::SimdAddAcc            0      0.00%     58.13% # Class of committed instruction
system.switch_cpus3.commit.committedInstType_0::SimdAlu        43080      0.01%     58.14% # Class of committed instruction
system.switch_cpus3.commit.committedInstType_0::SimdCmp            0      0.00%     58.14% # Class of committed instruction
system.switch_cpus3.commit.committedInstType_0::SimdCvt            0      0.00%     58.14% # Class of committed instruction
system.switch_cpus3.commit.committedInstType_0::SimdMisc            0      0.00%     58.14% # Class of committed instruction
system.switch_cpus3.commit.committedInstType_0::SimdMult            0      0.00%     58.14% # Class of committed instruction
system.switch_cpus3.commit.committedInstType_0::SimdMultAcc            0      0.00%     58.14% # Class of committed instruction
system.switch_cpus3.commit.committedInstType_0::SimdShift            0      0.00%     58.14% # Class of committed instruction
system.switch_cpus3.commit.committedInstType_0::SimdShiftAcc            0      0.00%     58.14% # Class of committed instruction
system.switch_cpus3.commit.committedInstType_0::SimdDiv            0      0.00%     58.14% # Class of committed instruction
system.switch_cpus3.commit.committedInstType_0::SimdSqrt            0      0.00%     58.14% # Class of committed instruction
system.switch_cpus3.commit.committedInstType_0::SimdFloatAdd     27834210      6.44%     64.58% # Class of committed instruction
system.switch_cpus3.commit.committedInstType_0::SimdFloatAlu            0      0.00%     64.58% # Class of committed instruction
system.switch_cpus3.commit.committedInstType_0::SimdFloatCmp     28713889      6.64%     71.23% # Class of committed instruction
system.switch_cpus3.commit.committedInstType_0::SimdFloatCvt      5484065      1.27%     72.49% # Class of committed instruction
system.switch_cpus3.commit.committedInstType_0::SimdFloatDiv            0      0.00%     72.49% # Class of committed instruction
system.switch_cpus3.commit.committedInstType_0::SimdFloatMisc            0      0.00%     72.49% # Class of committed instruction
system.switch_cpus3.commit.committedInstType_0::SimdFloatMult     14556986      3.37%     75.86% # Class of committed instruction
system.switch_cpus3.commit.committedInstType_0::SimdFloatMultAcc            0      0.00%     75.86% # Class of committed instruction
system.switch_cpus3.commit.committedInstType_0::SimdFloatSqrt            0      0.00%     75.86% # Class of committed instruction
system.switch_cpus3.commit.committedInstType_0::SimdReduceAdd            0      0.00%     75.86% # Class of committed instruction
system.switch_cpus3.commit.committedInstType_0::SimdReduceAlu            0      0.00%     75.86% # Class of committed instruction
system.switch_cpus3.commit.committedInstType_0::SimdReduceCmp            0      0.00%     75.86% # Class of committed instruction
system.switch_cpus3.commit.committedInstType_0::SimdFloatReduceAdd            0      0.00%     75.86% # Class of committed instruction
system.switch_cpus3.commit.committedInstType_0::SimdFloatReduceCmp            0      0.00%     75.86% # Class of committed instruction
system.switch_cpus3.commit.committedInstType_0::SimdAes            0      0.00%     75.86% # Class of committed instruction
system.switch_cpus3.commit.committedInstType_0::SimdAesMix            0      0.00%     75.86% # Class of committed instruction
system.switch_cpus3.commit.committedInstType_0::SimdSha1Hash            0      0.00%     75.86% # Class of committed instruction
system.switch_cpus3.commit.committedInstType_0::SimdSha1Hash2            0      0.00%     75.86% # Class of committed instruction
system.switch_cpus3.commit.committedInstType_0::SimdSha256Hash            0      0.00%     75.86% # Class of committed instruction
system.switch_cpus3.commit.committedInstType_0::SimdSha256Hash2            0      0.00%     75.86% # Class of committed instruction
system.switch_cpus3.commit.committedInstType_0::SimdShaSigma2            0      0.00%     75.86% # Class of committed instruction
system.switch_cpus3.commit.committedInstType_0::SimdShaSigma3            0      0.00%     75.86% # Class of committed instruction
system.switch_cpus3.commit.committedInstType_0::SimdPredAlu            0      0.00%     75.86% # Class of committed instruction
system.switch_cpus3.commit.committedInstType_0::MemRead     16181761      3.74%     79.61% # Class of committed instruction
system.switch_cpus3.commit.committedInstType_0::MemWrite      7492009      1.73%     81.34% # Class of committed instruction
system.switch_cpus3.commit.committedInstType_0::FloatMemRead     61479766     14.22%     95.56% # Class of committed instruction
system.switch_cpus3.commit.committedInstType_0::FloatMemWrite     19172185      4.44%    100.00% # Class of committed instruction
system.switch_cpus3.commit.committedInstType_0::IprAccess            0      0.00%    100.00% # Class of committed instruction
system.switch_cpus3.commit.committedInstType_0::InstPrefetch            0      0.00%    100.00% # Class of committed instruction
system.switch_cpus3.commit.committedInstType_0::total    432212703                       # Class of committed instruction
system.switch_cpus3.commit.commitEligibleSamples     31303396                       # number cycles where commit BW limit reached
system.switch_cpus3.decode.idleCycles        15166631                       # Number of cycles decode is idle
system.switch_cpus3.decode.blockedCycles   1569756490                       # Number of cycles decode is blocked
system.switch_cpus3.decode.runCycles         50422028                       # Number of cycles decode is running
system.switch_cpus3.decode.unblockCycles     29415959                       # Number of cycles decode is unblocking
system.switch_cpus3.decode.squashCycles       1647169                       # Number of cycles decode is squashing
system.switch_cpus3.decode.branchResolved     17173392                       # Number of times decode resolved a  branch
system.switch_cpus3.decode.branchMispred          338                       # Number of times decode detected a branch misprediction
system.switch_cpus3.decode.decodedInsts     607852579                       # Number of instructions handled by decode
system.switch_cpus3.decode.squashedInsts         2025                       # Number of squashed instructions handled by decode
system.switch_cpus3.dtb.rdAccesses          121589500                       # TLB accesses on read requests
system.switch_cpus3.dtb.wrAccesses           63670976                       # TLB accesses on write requests
system.switch_cpus3.dtb.rdMisses              2714679                       # TLB misses on read requests
system.switch_cpus3.dtb.wrMisses               328896                       # TLB misses on write requests
system.switch_cpus3.dtb.walker.power_state.pwrStateResidencyTicks::UNDEFINED 18774091779003                       # Cumulative time (in ticks) in various power states
system.switch_cpus3.fetch.icacheStallCycles       821649                       # Number of cycles fetch is stalled on an Icache miss
system.switch_cpus3.fetch.insts             350239931                       # Number of instructions fetch has processed
system.switch_cpus3.fetch.branches           35593441                       # Number of branches that fetch encountered
system.switch_cpus3.fetch.predictedBranches     21010502                       # Number of branches that fetch has predicted taken
system.switch_cpus3.fetch.cycles           1663936544                       # Number of cycles fetch has run and was not squashing or blocked
system.switch_cpus3.fetch.squashCycles        3294990                       # Number of cycles fetch has spent squashing
system.switch_cpus3.fetch.miscStallCycles          124                       # Number of cycles fetch has spent waiting on interrupts,or bad addresses, or out of MSHRs
system.switch_cpus3.fetch.pendingTrapStallCycles         2468                       # Number of stall cycles due to pending traps
system.switch_cpus3.fetch.cacheLines         45191239                       # Number of cache lines fetched
system.switch_cpus3.fetch.icacheSquashes          190                       # Number of outstanding Icache misses that were squashed
system.switch_cpus3.fetch.nisnDist::samples   1666408280                       # Number of instructions fetched each cycle (Total)
system.switch_cpus3.fetch.nisnDist::mean     0.401572                       # Number of instructions fetched each cycle (Total)
system.switch_cpus3.fetch.nisnDist::stdev     1.625186                       # Number of instructions fetched each cycle (Total)
system.switch_cpus3.fetch.nisnDist::underflows            0      0.00%      0.00% # Number of instructions fetched each cycle (Total)
system.switch_cpus3.fetch.nisnDist::0      1554738841     93.30%     93.30% # Number of instructions fetched each cycle (Total)
system.switch_cpus3.fetch.nisnDist::1         4911412      0.29%     93.59% # Number of instructions fetched each cycle (Total)
system.switch_cpus3.fetch.nisnDist::2        12616440      0.76%     94.35% # Number of instructions fetched each cycle (Total)
system.switch_cpus3.fetch.nisnDist::3         7444978      0.45%     94.80% # Number of instructions fetched each cycle (Total)
system.switch_cpus3.fetch.nisnDist::4         6638464      0.40%     95.20% # Number of instructions fetched each cycle (Total)
system.switch_cpus3.fetch.nisnDist::5         9974472      0.60%     95.79% # Number of instructions fetched each cycle (Total)
system.switch_cpus3.fetch.nisnDist::6         6329045      0.38%     96.17% # Number of instructions fetched each cycle (Total)
system.switch_cpus3.fetch.nisnDist::7         7733819      0.46%     96.64% # Number of instructions fetched each cycle (Total)
system.switch_cpus3.fetch.nisnDist::8        56020809      3.36%    100.00% # Number of instructions fetched each cycle (Total)
system.switch_cpus3.fetch.nisnDist::overflows            0      0.00%    100.00% # Number of instructions fetched each cycle (Total)
system.switch_cpus3.fetch.nisnDist::min_value            0                       # Number of instructions fetched each cycle (Total)
system.switch_cpus3.fetch.nisnDist::max_value            8                       # Number of instructions fetched each cycle (Total)
system.switch_cpus3.fetch.nisnDist::total   1666408280                       # Number of instructions fetched each cycle (Total)
system.switch_cpus3.fetch.branchRate         0.021359                       # Number of branch fetches per cycle
system.switch_cpus3.fetch.rate               0.210171                       # Number of inst fetches per cycle
system.switch_cpus3.itb.rdAccesses                  0                       # TLB accesses on read requests
system.switch_cpus3.itb.wrAccesses           45191431                       # TLB accesses on write requests
system.switch_cpus3.itb.rdMisses                    0                       # TLB misses on read requests
system.switch_cpus3.itb.wrMisses                  222                       # TLB misses on write requests
system.switch_cpus3.itb.walker.power_state.pwrStateResidencyTicks::UNDEFINED 18774091779003                       # Cumulative time (in ticks) in various power states
system.switch_cpus3.lsq0.forwLoads             977896                       # Number of loads that had data forwarded from stores
system.switch_cpus3.lsq0.squashedLoads       35509563                       # Number of loads squashed
system.switch_cpus3.lsq0.ignoredResponses         1115                       # Number of memory responses ignored because the instruction is squashed
system.switch_cpus3.lsq0.memOrderViolation         6198                       # Number of memory ordering violations
system.switch_cpus3.lsq0.squashedStores      38479001                       # Number of stores squashed
system.switch_cpus3.lsq0.rescheduledLoads      7898775                       # Number of loads that were rescheduled
system.switch_cpus3.lsq0.blockedByCache          9600                       # Number of times an access to memory failed due to the cache being blocked
system.switch_cpus3.power_state.pwrStateResidencyTicks::OFF 554929534980                       # Cumulative time (in ticks) in various power states
system.switch_cpus3.rename.squashCycles       1647169                       # Number of cycles rename is squashing
system.switch_cpus3.rename.idleCycles        26443507                       # Number of cycles rename is idle
system.switch_cpus3.rename.blockCycles      938312416                       # Number of cycles rename is blocking
system.switch_cpus3.rename.serializeStallCycles            0                       # count of cycles rename stalledfor serializing inst
system.switch_cpus3.rename.runCycles         66692126                       # Number of cycles rename is running
system.switch_cpus3.rename.unblockCycles    633313059                       # Number of cycles rename is unblocking
system.switch_cpus3.rename.renamedInsts     594164784                       # Number of instructions processed by rename
system.switch_cpus3.rename.ROBFullEvents      8878502                       # Number of times rename has blocked due to ROB full
system.switch_cpus3.rename.IQFullEvents     142009333                       # Number of times rename has blocked due to IQ full
system.switch_cpus3.rename.LQFullEvents     271106442                       # Number of times rename has blocked due to LQ full
system.switch_cpus3.rename.SQFullEvents     323601475                       # Number of times rename has blocked due to SQ full
system.switch_cpus3.rename.renamedOperands    606924710                       # Number of destination operands rename has renamed
system.switch_cpus3.rename.lookups         1419401097                       # Number of register rename lookups that rename has made
system.switch_cpus3.rename.intLookups       588998776                       # Number of integer rename lookups
system.switch_cpus3.rename.fpLookups        374697351                       # Number of floating rename lookups
system.switch_cpus3.rename.committedMaps    457200182                       # Number of HB maps that are committed
system.switch_cpus3.rename.undoneMaps       149724442                       # Number of HB maps that are undone due to squashing
system.switch_cpus3.rename.serializing              0                       # count of serializing insts renamed
system.switch_cpus3.rename.tempSerializing            0                       # count of temporary serializing insts renamed
system.switch_cpus3.rename.skidInsts        162535239                       # count of insts added to the skid buffer
system.switch_cpus3.rob.reads              2168426726                       # The number of ROB reads
system.switch_cpus3.rob.writes             1149321294                       # The number of ROB writes
system.switch_cpus3.thread0.numInsts        242017116                       # Number of Instructions committed
system.switch_cpus3.thread0.numOps          432212703                       # Number of Ops committed
system.switch_cpus3.thread0.numMemRefs              0                       # Number of Memory References
system.voltage_domain.voltage                       1                       # Voltage in Volts

---------- End Simulation Statistics   ----------
