Command line:
./runscript_pride.sh blender AE.BASELINE.4C 4 2017
Global frequency set at 1000000000000 ticks per second
DRAM config: RowsPerBank: 65536, BanksPerRank: 32, RanksPerChannel: 1
warn: Sockets disabled, not accepting gdb connections
warn: CoherentXBar system.cpu0.mmucache.mmubus has no snooping ports attached!
warn: CoherentXBar system.cpu1.mmucache.mmubus has no snooping ports attached!
warn: CoherentXBar system.cpu2.mmucache.mmubus has no snooping ports attached!
warn: CoherentXBar system.cpu3.mmucache.mmubus has no snooping ports attached!
warn: Checkpoints for file descriptors currently do not work.
warn: Checkpoints for file descriptors currently do not work.
warn: Checkpoints for file descriptors currently do not work.
warn: Checkpoints for file descriptors currently do not work.
gem5 Simulator System.  http://gem5.org
gem5 is copyrighted software; use the --copyright option for details.

gem5 version 20.1.0.5
gem5 compiled Jul 12 2024 12:42:38
gem5 started Jul 31 2024 03:21:19
gem5 executing on a07dda8b130c, pid 225732
command line: /home/user/PrIDE/performance/gem5/build/X86/gem5.opt --outdir=/home/user/PrIDE/performance/gem5/stats/pride_multiprogram_16GBmem_250Mn.SPEC2017.C4/AE.BASELINE.4C/blender /home/user/PrIDE/performance/gem5/configs/example/se_rq_spec_config_multicore.py --redirects /lib64=/home/utils/gcc-6.2.0/lib64 --benchmark=blender --benchmark_stdout=/home/user/PrIDE/performance/gem5/stats/pride_multiprogram_16GBmem_250Mn.SPEC2017.C4/AE.BASELINE.4C/blender/blender.out --benchmark_stderr=/home/user/PrIDE/performance/gem5/stats/pride_multiprogram_16GBmem_250Mn.SPEC2017.C4/AE.BASELINE.4C/blender/blender.err --spec-version=2017 --num-cpus=4 --mem-size=16GB --mem-type=DDR5_2400_32x4 --mem-ranks=1 --mem-channels=1 --checkpoint-dir=/home/user/PrIDE/performance/gem5/cpts-DDR5/multiprogram_16GBmem_25Bn.SPEC2017.C4/blender-1-ref-x86 --checkpoint-restore=25000000000 --at-instruction --cpu-type DerivO3CPU --caches --l2cache --l1d_size=32kB --l1i_size=32kB --l2_size=256kB --l3_size=4MB --l1d_assoc=8 --l1i_assoc=8 --l2_assoc=16 --l3_assoc=16 --cpu-clock=3GHz --sys-clock=3GHz --maxinsts=250000000 --prog-interval=300Hz

info: Standard input is not a terminal, disabling listeners.
Benchmark- 0   blender
Selected benchmark
--> blender
CMD: ['/opt/spec2017/benchspec/CPU/526.blender_r/run/run_base_refrate_gem5_se-m64.0000/blender_r_base.gem5_se-m64', '/opt/spec2017/benchspec/CPU/526.blender_r/run/run_base_refrate_gem5_se-m64.0000/sh3_no_char.blend', '--render-output', 'sh3_no_char_', '--threads', '1', '-b', '-F', 'RAWTGA', '-s', '849', '-e', '849', '-a']
CWD: /opt/spec2017/benchspec/CPU/526.blender_r/run/run_base_refrate_gem5_se-m64.0000/
Process stdout file: /home/user/PrIDE/performance/gem5/stats/pride_multiprogram_16GBmem_250Mn.SPEC2017.C4/AE.BASELINE.4C/blender/blender.out_0
Process stderr file: /home/user/PrIDE/performance/gem5/stats/pride_multiprogram_16GBmem_250Mn.SPEC2017.C4/AE.BASELINE.4C/blender/blender.err_0
Benchmark- 1   blender
Selected benchmark
--> blender
CMD: ['/opt/spec2017/benchspec/CPU/526.blender_r/run/run_base_refrate_gem5_se-m64.0000/blender_r_base.gem5_se-m64', '/opt/spec2017/benchspec/CPU/526.blender_r/run/run_base_refrate_gem5_se-m64.0000/sh3_no_char.blend', '--render-output', 'sh3_no_char_', '--threads', '1', '-b', '-F', 'RAWTGA', '-s', '849', '-e', '849', '-a']
CWD: /opt/spec2017/benchspec/CPU/526.blender_r/run/run_base_refrate_gem5_se-m64.0000/
Process stdout file: /home/user/PrIDE/performance/gem5/stats/pride_multiprogram_16GBmem_250Mn.SPEC2017.C4/AE.BASELINE.4C/blender/blender.out_1
Process stderr file: /home/user/PrIDE/performance/gem5/stats/pride_multiprogram_16GBmem_250Mn.SPEC2017.C4/AE.BASELINE.4C/blender/blender.err_1
Benchmark- 2   blender
Selected benchmark
--> blender
CMD: ['/opt/spec2017/benchspec/CPU/526.blender_r/run/run_base_refrate_gem5_se-m64.0000/blender_r_base.gem5_se-m64', '/opt/spec2017/benchspec/CPU/526.blender_r/run/run_base_refrate_gem5_se-m64.0000/sh3_no_char.blend', '--render-output', 'sh3_no_char_', '--threads', '1', '-b', '-F', 'RAWTGA', '-s', '849', '-e', '849', '-a']
CWD: /opt/spec2017/benchspec/CPU/526.blender_r/run/run_base_refrate_gem5_se-m64.0000/
Process stdout file: /home/user/PrIDE/performance/gem5/stats/pride_multiprogram_16GBmem_250Mn.SPEC2017.C4/AE.BASELINE.4C/blender/blender.out_2
Process stderr file: /home/user/PrIDE/performance/gem5/stats/pride_multiprogram_16GBmem_250Mn.SPEC2017.C4/AE.BASELINE.4C/blender/blender.err_2
Benchmark- 3   blender
Selected benchmark
--> blender
CMD: ['/opt/spec2017/benchspec/CPU/526.blender_r/run/run_base_refrate_gem5_se-m64.0000/blender_r_base.gem5_se-m64', '/opt/spec2017/benchspec/CPU/526.blender_r/run/run_base_refrate_gem5_se-m64.0000/sh3_no_char.blend', '--render-output', 'sh3_no_char_', '--threads', '1', '-b', '-F', 'RAWTGA', '-s', '849', '-e', '849', '-a']
CWD: /opt/spec2017/benchspec/CPU/526.blender_r/run/run_base_refrate_gem5_se-m64.0000/
Process stdout file: /home/user/PrIDE/performance/gem5/stats/pride_multiprogram_16GBmem_250Mn.SPEC2017.C4/AE.BASELINE.4C/blender/blender.out_3
Process stderr file: /home/user/PrIDE/performance/gem5/stats/pride_multiprogram_16GBmem_250Mn.SPEC2017.C4/AE.BASELINE.4C/blender/blender.err_3
Workload-0: 
['/opt/spec2017/benchspec/CPU/526.blender_r/run/run_base_refrate_gem5_se-m64.0000/blender_r_base.gem5_se-m64', '/opt/spec2017/benchspec/CPU/526.blender_r/run/run_base_refrate_gem5_se-m64.0000/sh3_no_char.blend', '--render-output', 'sh3_no_char_', '--threads', '1', '-b', '-F', 'RAWTGA', '-s', '849', '-e', '849', '-a']
Workload-1: 
['/opt/spec2017/benchspec/CPU/526.blender_r/run/run_base_refrate_gem5_se-m64.0000/blender_r_base.gem5_se-m64', '/opt/spec2017/benchspec/CPU/526.blender_r/run/run_base_refrate_gem5_se-m64.0000/sh3_no_char.blend', '--render-output', 'sh3_no_char_', '--threads', '1', '-b', '-F', 'RAWTGA', '-s', '849', '-e', '849', '-a']
Workload-2: 
['/opt/spec2017/benchspec/CPU/526.blender_r/run/run_base_refrate_gem5_se-m64.0000/blender_r_base.gem5_se-m64', '/opt/spec2017/benchspec/CPU/526.blender_r/run/run_base_refrate_gem5_se-m64.0000/sh3_no_char.blend', '--render-output', 'sh3_no_char_', '--threads', '1', '-b', '-F', 'RAWTGA', '-s', '849', '-e', '849', '-a']
Workload-3: 
['/opt/spec2017/benchspec/CPU/526.blender_r/run/run_base_refrate_gem5_se-m64.0000/blender_r_base.gem5_se-m64', '/opt/spec2017/benchspec/CPU/526.blender_r/run/run_base_refrate_gem5_se-m64.0000/sh3_no_char.blend', '--render-output', 'sh3_no_char_', '--threads', '1', '-b', '-F', 'RAWTGA', '-s', '849', '-e', '849', '-a']
defense_enable:  False  detector:  MG  mitigation:  RRS  threshold:  800
mg_entries:  1700
rrs_tuples:  3400 rrs_swap_delay:  2740ns rit_acc_delay:  1.25ns
Switch at curTick count:10000
warn: membus.master is deprecated. `master` is now called `mem_side_ports`
warn: No dot file generated. Please install pydot to generate the dot file and pdf.
info: Entering event queue @ 18219162241026.  Starting simulation...
info: Entering event queue @ 18219162251026.  Starting simulation...
warn: PowerState: Already in the requested power state, request ignored
Switched CPUS @ tick 18219162251026
switching cpus
**** REAL SIMULATION ****
info: Entering event queue @ 18219162251682.  Starting simulation...
18222495574359: Event_285: system.switch_cpus3 progress event, total committed:5561264, progress insts committed: 5561264, IPC: 00.55557
18222495574359: Event_284: system.switch_cpus2 progress event, total committed:5561264, progress insts committed: 5561264, IPC: 00.55557
18222495574359: Event_283: system.switch_cpus1 progress event, total committed:5561472, progress insts committed: 5561472, IPC: 0.555591
18222495574359: Event_282: system.switch_cpus0 progress event, total committed:5561247, progress insts committed: 5561247, IPC: 0.555569
18225828907692: Event_282: system.switch_cpus0 progress event, total committed:11107984, progress insts committed: 5546737, IPC: 0.554119
18225828907692: Event_283: system.switch_cpus1 progress event, total committed:11108058, progress insts committed: 5546586, IPC: 0.554104
18225828907692: Event_284: system.switch_cpus2 progress event, total committed:11108000, progress insts committed: 5546736, IPC: 0.554119
18225828907692: Event_285: system.switch_cpus3 progress event, total committed:11108208, progress insts committed: 5546944, IPC: 00.55414
18229162241025: Event_285: system.switch_cpus3 progress event, total committed:16423367, progress insts committed: 5315159, IPC: 0.530984
18229162241025: Event_284: system.switch_cpus2 progress event, total committed:16404232, progress insts committed: 5296232, IPC: 0.529094
18229162241025: Event_283: system.switch_cpus1 progress event, total committed:16423601, progress insts committed: 5315543, IPC: 0.531023
18229162241025: Event_282: system.switch_cpus0 progress event, total committed:16423350, progress insts committed: 5315366, IPC: 0.531005
18232495574358: Event_282: system.switch_cpus0 progress event, total committed:21578838, progress insts committed: 5155488, IPC: 0.515033
18232495574358: Event_283: system.switch_cpus1 progress event, total committed:21578890, progress insts committed: 5155289, IPC: 0.515013
18232495574358: Event_284: system.switch_cpus2 progress event, total committed:21490871, progress insts committed: 5086639, IPC: 0.508155
18232495574358: Event_285: system.switch_cpus3 progress event, total committed:21579037, progress insts committed: 5155670, IPC: 0.515051
18235828907691: Event_285: system.switch_cpus3 progress event, total committed:26802320, progress insts committed: 5223283, IPC: 0.521806
18235828907691: Event_284: system.switch_cpus2 progress event, total committed:26647412, progress insts committed: 5156541, IPC: 0.515138
18235828907691: Event_283: system.switch_cpus1 progress event, total committed:26798402, progress insts committed: 5219512, IPC: 0.521429
18235828907691: Event_282: system.switch_cpus0 progress event, total committed:26801778, progress insts committed: 5222940, IPC: 0.521772
18239162241024: Event_282: system.switch_cpus0 progress event, total committed:32041031, progress insts committed: 5239253, IPC: 0.523401
18239162241024: Event_283: system.switch_cpus1 progress event, total committed:32020814, progress insts committed: 5222412, IPC: 0.521719
18239162241024: Event_284: system.switch_cpus2 progress event, total committed:31827647, progress insts committed: 5180235, IPC: 0.517505
18239162241024: Event_285: system.switch_cpus3 progress event, total committed:32042459, progress insts committed: 5240139, IPC: 00.52349
18242495574357: Event_285: system.switch_cpus3 progress event, total committed:37386771, progress insts committed: 5344312, IPC: 0.533897
18242495574357: Event_284: system.switch_cpus2 progress event, total committed:37128098, progress insts committed: 5300451, IPC: 0.529515
18242495574357: Event_283: system.switch_cpus1 progress event, total committed:37360928, progress insts committed: 5340114, IPC: 0.533477
18242495574357: Event_282: system.switch_cpus0 progress event, total committed:37366644, progress insts committed: 5325613, IPC: 0.532029
18245828907690: Event_282: system.switch_cpus0 progress event, total committed:41889218, progress insts committed: 4522574, IPC: 0.451805
18245828907690: Event_283: system.switch_cpus1 progress event, total committed:41890665, progress insts committed: 4529737, IPC: 0.452521
18245828907690: Event_284: system.switch_cpus2 progress event, total committed:41692771, progress insts committed: 4564673, IPC: 0.456011
18245828907690: Event_285: system.switch_cpus3 progress event, total committed:41896821, progress insts committed: 4510050, IPC: 0.450554
18249162241023: Event_285: system.switch_cpus3 progress event, total committed:44380676, progress insts committed: 2483855, IPC: 0.248137
18249162241023: Event_284: system.switch_cpus2 progress event, total committed:44161065, progress insts committed: 2468294, IPC: 0.246583
18249162241023: Event_283: system.switch_cpus1 progress event, total committed:44363575, progress insts committed: 2472910, IPC: 0.247044
18249162241023: Event_282: system.switch_cpus0 progress event, total committed:44370983, progress insts committed: 2481765, IPC: 0.247928
18252495574356: Event_282: system.switch_cpus0 progress event, total committed:46789938, progress insts committed: 2418955, IPC: 0.241654
18252495574356: Event_283: system.switch_cpus1 progress event, total committed:46819160, progress insts committed: 2455585, IPC: 0.245313
18252495574356: Event_284: system.switch_cpus2 progress event, total committed:46611009, progress insts committed: 2449944, IPC: 0.244749
18252495574356: Event_285: system.switch_cpus3 progress event, total committed:46852211, progress insts committed: 2471535, IPC: 0.246906
18255828907689: Event_285: system.switch_cpus3 progress event, total committed:49335795, progress insts committed: 2483584, IPC: 00.24811
18255828907689: Event_284: system.switch_cpus2 progress event, total committed:49085380, progress insts committed: 2474371, IPC: 00.24719
18255828907689: Event_283: system.switch_cpus1 progress event, total committed:49269795, progress insts committed: 2450635, IPC: 0.244818
18255828907689: Event_282: system.switch_cpus0 progress event, total committed:49262133, progress insts committed: 2472195, IPC: 0.246972
18259162241022: Event_282: system.switch_cpus0 progress event, total committed:51705123, progress insts committed: 2442990, IPC: 0.244055
18259162241022: Event_283: system.switch_cpus1 progress event, total committed:51740340, progress insts committed: 2470545, IPC: 0.246807
18259162241022: Event_284: system.switch_cpus2 progress event, total committed:51498183, progress insts committed: 2412803, IPC: 0.241039
18259162241022: Event_285: system.switch_cpus3 progress event, total committed:51786426, progress insts committed: 2450631, IPC: 0.244818
18262495574355: Event_285: system.switch_cpus3 progress event, total committed:54162866, progress insts committed: 2376440, IPC: 0.237406
18262495574355: Event_284: system.switch_cpus2 progress event, total committed:53936600, progress insts committed: 2438417, IPC: 0.243598
18262495574355: Event_283: system.switch_cpus1 progress event, total committed:54171611, progress insts committed: 2431271, IPC: 0.242884
18262495574355: Event_282: system.switch_cpus0 progress event, total committed:54092948, progress insts committed: 2387825, IPC: 0.238544
18265828907688: Event_282: system.switch_cpus0 progress event, total committed:56511683, progress insts committed: 2418735, IPC: 0.241632
18265828907688: Event_283: system.switch_cpus1 progress event, total committed:56613171, progress insts committed: 2441560, IPC: 0.243912
18265828907688: Event_284: system.switch_cpus2 progress event, total committed:56361385, progress insts committed: 2424785, IPC: 0.242236
18265828907688: Event_285: system.switch_cpus3 progress event, total committed:56596455, progress insts committed: 2433589, IPC: 0.243116
18269162241021: Event_285: system.switch_cpus3 progress event, total committed:59048905, progress insts committed: 2452450, IPC: 0000.245
18269162241021: Event_284: system.switch_cpus2 progress event, total committed:58802340, progress insts committed: 2440955, IPC: 0.243851
18269162241021: Event_283: system.switch_cpus1 progress event, total committed:59070355, progress insts committed: 2457184, IPC: 0.245473
18269162241021: Event_282: system.switch_cpus0 progress event, total committed:58961218, progress insts committed: 2449535, IPC: 0.244709
18272495574354: Event_282: system.switch_cpus0 progress event, total committed:61275999, progress insts committed: 2314781, IPC: 0.231247
18272495574354: Event_283: system.switch_cpus1 progress event, total committed:61414675, progress insts committed: 2344320, IPC: 0.234198
18272495574354: Event_284: system.switch_cpus2 progress event, total committed:61156666, progress insts committed: 2354326, IPC: 0.235197
18272495574354: Event_285: system.switch_cpus3 progress event, total committed:61410165, progress insts committed: 2361260, IPC: 00.23589
18275828907687: Event_285: system.switch_cpus3 progress event, total committed:63789685, progress insts committed: 2379520, IPC: 0.237714
18275828907687: Event_284: system.switch_cpus2 progress event, total committed:63512870, progress insts committed: 2356204, IPC: 0.235385
18275828907687: Event_283: system.switch_cpus1 progress event, total committed:63807171, progress insts committed: 2392496, IPC: 00.23901
18275828907687: Event_282: system.switch_cpus0 progress event, total committed:63641219, progress insts committed: 2365220, IPC: 0.236285
18279162241020: Event_282: system.switch_cpus0 progress event, total committed:66023768, progress insts committed: 2382549, IPC: 0.238017
18279162241020: Event_283: system.switch_cpus1 progress event, total committed:66189225, progress insts committed: 2382054, IPC: 0.237967
18279162241020: Event_284: system.switch_cpus2 progress event, total committed:65877540, progress insts committed: 2364670, IPC: 0.236231
18279162241020: Event_285: system.switch_cpus3 progress event, total committed:66172120, progress insts committed: 2382435, IPC: 0.238005
18282495574353: Event_285: system.switch_cpus3 progress event, total committed:68588211, progress insts committed: 2416091, IPC: 0.241367
18282495574353: Event_284: system.switch_cpus2 progress event, total committed:68291156, progress insts committed: 2413616, IPC: 00.24112
18282495574353: Event_283: system.switch_cpus1 progress event, total committed:68597620, progress insts committed: 2408395, IPC: 0.240599
18282495574353: Event_282: system.switch_cpus0 progress event, total committed:68437938, progress insts committed: 2414170, IPC: 0.241176
18285828907686: Event_282: system.switch_cpus0 progress event, total committed:70892148, progress insts committed: 2454210, IPC: 0.245176
18285828907686: Event_283: system.switch_cpus1 progress event, total committed:71049685, progress insts committed: 2452065, IPC: 0.244961
18285828907686: Event_284: system.switch_cpus2 progress event, total committed:70738275, progress insts committed: 2447119, IPC: 0.244467
18285828907686: Event_285: system.switch_cpus3 progress event, total committed:71047807, progress insts committed: 2459596, IPC: 0.245714
18289162241019: Event_285: system.switch_cpus3 progress event, total committed:73459887, progress insts committed: 2412080, IPC: 0.240967
18289162241019: Event_284: system.switch_cpus2 progress event, total committed:73140675, progress insts committed: 2402400, IPC: 00000.24
18289162241019: Event_283: system.switch_cpus1 progress event, total committed:73471060, progress insts committed: 2421375, IPC: 0.241895
18289162241019: Event_282: system.switch_cpus0 progress event, total committed:73296400, progress insts committed: 2404252, IPC: 0.240185
18292495574352: Event_282: system.switch_cpus0 progress event, total committed:75682000, progress insts committed: 2385600, IPC: 0.238321
18292495574352: Event_283: system.switch_cpus1 progress event, total committed:75884786, progress insts committed: 2413726, IPC: 0.241131
18292495574352: Event_284: system.switch_cpus2 progress event, total committed:75541975, progress insts committed: 2401300, IPC: 00.23989
18292495574352: Event_285: system.switch_cpus3 progress event, total committed:75878245, progress insts committed: 2418358, IPC: 0.241594
18295828907685: Event_285: system.switch_cpus3 progress event, total committed:78268325, progress insts committed: 2390080, IPC: 0.238769
18295828907685: Event_284: system.switch_cpus2 progress event, total committed:77988375, progress insts committed: 2446400, IPC: 0.244395
18295828907685: Event_283: system.switch_cpus1 progress event, total committed:78328879, progress insts committed: 2444093, IPC: 0.244165
18295828907685: Event_282: system.switch_cpus0 progress event, total committed:78145383, progress insts committed: 2463383, IPC: 0.246092
18299162241018: Event_282: system.switch_cpus0 progress event, total committed:83534992, progress insts committed: 5389609, IPC: 0.538422
18299162241018: Event_283: system.switch_cpus1 progress event, total committed:83838305, progress insts committed: 5509426, IPC: 0.550392
18299162241018: Event_284: system.switch_cpus2 progress event, total committed:83269653, progress insts committed: 5281278, IPC: 000.5276
18299162241018: Event_285: system.switch_cpus3 progress event, total committed:83778369, progress insts committed: 5510044, IPC: 0.550453
18302495574351: Event_285: system.switch_cpus3 progress event, total committed:89273287, progress insts committed: 5494918, IPC: 0.548942
18302495574351: Event_284: system.switch_cpus2 progress event, total committed:88728554, progress insts committed: 5458901, IPC: 0.545344
18302495574351: Event_283: system.switch_cpus1 progress event, total committed:89368629, progress insts committed: 5530324, IPC: 0.552479
18302495574351: Event_282: system.switch_cpus0 progress event, total committed:88990468, progress insts committed: 5455476, IPC: 0.545002
18305828907684: Event_282: system.switch_cpus0 progress event, total committed:94437294, progress insts committed: 5446826, IPC: 0.544138
18305828907684: Event_283: system.switch_cpus1 progress event, total committed:94874883, progress insts committed: 5506254, IPC: 0.550075
18305828907684: Event_284: system.switch_cpus2 progress event, total committed:94178273, progress insts committed: 5449719, IPC: 0.544427
18305828907684: Event_285: system.switch_cpus3 progress event, total committed:94744428, progress insts committed: 5471141, IPC: 0.546567
18309162241017: Event_285: system.switch_cpus3 progress event, total committed:100353973, progress insts committed: 5609545, IPC: 0.560394
18309162241017: Event_284: system.switch_cpus2 progress event, total committed:99785393, progress insts committed: 5607120, IPC: 0.560151
18309162241017: Event_283: system.switch_cpus1 progress event, total committed:100463334, progress insts committed: 5588451, IPC: 0.558286
18309162241017: Event_282: system.switch_cpus0 progress event, total committed:100035805, progress insts committed: 5598511, IPC: 0.559291
18312495574350: Event_282: system.switch_cpus0 progress event, total committed:105451748, progress insts committed: 5415943, IPC: 0.541053
18312495574350: Event_283: system.switch_cpus1 progress event, total committed:105938883, progress insts committed: 5475549, IPC: 0.547007
18312495574350: Event_284: system.switch_cpus2 progress event, total committed:105185706, progress insts committed: 5400313, IPC: 0.539491
18312495574350: Event_285: system.switch_cpus3 progress event, total committed:105817124, progress insts committed: 5463151, IPC: 0.545769
18315828907683: Event_285: system.switch_cpus3 progress event, total committed:111250327, progress insts committed: 5433203, IPC: 0.542777
18315828907683: Event_284: system.switch_cpus2 progress event, total committed:110616481, progress insts committed: 5430775, IPC: 0.542534
18315828907683: Event_283: system.switch_cpus1 progress event, total committed:111370897, progress insts committed: 5432014, IPC: 0.542658
18315828907683: Event_282: system.switch_cpus0 progress event, total committed:110867841, progress insts committed: 5416093, IPC: 0.541068
18319162241016: Event_282: system.switch_cpus0 progress event, total committed:116271542, progress insts committed: 5403701, IPC: 00.53983
18319162241016: Event_283: system.switch_cpus1 progress event, total committed:116822532, progress insts committed: 5451635, IPC: 0.544618
18319162241016: Event_284: system.switch_cpus2 progress event, total committed:116021236, progress insts committed: 5404755, IPC: 0.539935
18319162241016: Event_285: system.switch_cpus3 progress event, total committed:116706799, progress insts committed: 5456472, IPC: 0.545102
18322495574349: Event_285: system.switch_cpus3 progress event, total committed:120356333, progress insts committed: 3649534, IPC: 0.364588
18322495574349: Event_284: system.switch_cpus2 progress event, total committed:120329276, progress insts committed: 4308040, IPC: 0.430373
18322495574349: Event_283: system.switch_cpus1 progress event, total committed:120359052, progress insts committed: 3536520, IPC: 0.353298
18322495574349: Event_282: system.switch_cpus0 progress event, total committed:120338773, progress insts committed: 4067231, IPC: 0.406316
18325828907682: Event_282: system.switch_cpus0 progress event, total committed:120500025, progress insts committed: 161252, IPC: 0.0161091
18325828907682: Event_283: system.switch_cpus1 progress event, total committed:120521897, progress insts committed: 162845, IPC: 0.0162682
18325828907682: Event_284: system.switch_cpus2 progress event, total committed:120490359, progress insts committed: 161083, IPC: 0.0160922
18325828907682: Event_285: system.switch_cpus3 progress event, total committed:120518756, progress insts committed: 162423, IPC: 0.0162261
18329162241015: Event_285: system.switch_cpus3 progress event, total committed:120669494, progress insts committed: 150738, IPC: 0.0150587
18329162241015: Event_284: system.switch_cpus2 progress event, total committed:120641136, progress insts committed: 150777, IPC: 0.0150626
18329162241015: Event_283: system.switch_cpus1 progress event, total committed:120672371, progress insts committed: 150474, IPC: 0.0150324
18329162241015: Event_282: system.switch_cpus0 progress event, total committed:120650271, progress insts committed: 150246, IPC: 0.0150096
18332495574348: Event_282: system.switch_cpus0 progress event, total committed:120800133, progress insts committed: 149862, IPC: 0.0149712
18332495574348: Event_283: system.switch_cpus1 progress event, total committed:120825239, progress insts committed: 152868, IPC: 0.0152715
18332495574348: Event_284: system.switch_cpus2 progress event, total committed:120792002, progress insts committed: 150866, IPC: 0.0150715
18332495574348: Event_285: system.switch_cpus3 progress event, total committed:120822038, progress insts committed: 152544, IPC: 0.0152391
18335828907681: Event_285: system.switch_cpus3 progress event, total committed:120974667, progress insts committed: 152629, IPC: 0.0152476
18335828907681: Event_284: system.switch_cpus2 progress event, total committed:120942116, progress insts committed: 150114, IPC: 0.0149964
18335828907681: Event_283: system.switch_cpus1 progress event, total committed:120978245, progress insts committed: 153006, IPC: 0.0152853
18335828907681: Event_282: system.switch_cpus0 progress event, total committed:120951636, progress insts committed: 151503, IPC: 0.0151351
18339162241014: Event_282: system.switch_cpus0 progress event, total committed:121102080, progress insts committed: 150444, IPC: 0.0150294
18339162241014: Event_283: system.switch_cpus1 progress event, total committed:121128905, progress insts committed: 150660, IPC: 0.0150509
18339162241014: Event_284: system.switch_cpus2 progress event, total committed:121093283, progress insts committed: 151167, IPC: 0.0151016
18339162241014: Event_285: system.switch_cpus3 progress event, total committed:121125005, progress insts committed: 150338, IPC: 0.0150188
18342495574347: Event_285: system.switch_cpus3 progress event, total committed:121276577, progress insts committed: 151572, IPC: 0.015142
18342495574347: Event_284: system.switch_cpus2 progress event, total committed:121240400, progress insts committed: 147117, IPC: 0.014697
18342495574347: Event_283: system.switch_cpus1 progress event, total committed:121279085, progress insts committed: 150180, IPC: 0.015003
18342495574347: Event_282: system.switch_cpus0 progress event, total committed:121247868, progress insts committed: 145788, IPC: 0.0145642
18345828907680: Event_282: system.switch_cpus0 progress event, total committed:121404100, progress insts committed: 156232, IPC: 0.0156076
18345828907680: Event_283: system.switch_cpus1 progress event, total committed:121438332, progress insts committed: 159247, IPC: 0.0159088
18345828907680: Event_284: system.switch_cpus2 progress event, total committed:121392777, progress insts committed: 152377, IPC: 0.0152225
18345828907680: Event_285: system.switch_cpus3 progress event, total committed:121435233, progress insts committed: 158656, IPC: 0.0158497
18349162241013: Event_285: system.switch_cpus3 progress event, total committed:121598751, progress insts committed: 163518, IPC: 0.0163354
18349162241013: Event_284: system.switch_cpus2 progress event, total committed:121554825, progress insts committed: 162048, IPC: 0.0161886
18349162241013: Event_283: system.switch_cpus1 progress event, total committed:121602708, progress insts committed: 164376, IPC: 0.0164212
18349162241013: Event_282: system.switch_cpus0 progress event, total committed:121562686, progress insts committed: 158586, IPC: 0.0158427
18352495574346: Event_282: system.switch_cpus0 progress event, total committed:121723537, progress insts committed: 160851, IPC: 0.016069
18352495574346: Event_283: system.switch_cpus1 progress event, total committed:121767090, progress insts committed: 164382, IPC: 0.0164218
18352495574346: Event_284: system.switch_cpus2 progress event, total committed:121713297, progress insts committed: 158472, IPC: 0.0158314
18352495574346: Event_285: system.switch_cpus3 progress event, total committed:121763994, progress insts committed: 165243, IPC: 0.0165078
18355828907679: Event_285: system.switch_cpus3 progress event, total committed:121926060, progress insts committed: 162066, IPC: 0.0161904
18355828907679: Event_284: system.switch_cpus2 progress event, total committed:121873722, progress insts committed: 160425, IPC: 0.0160265
18355828907679: Event_283: system.switch_cpus1 progress event, total committed:121929807, progress insts committed: 162717, IPC: 0.0162554
18355828907679: Event_282: system.switch_cpus0 progress event, total committed:121882684, progress insts committed: 159147, IPC: 0.0158988
18359162241012: Event_282: system.switch_cpus0 progress event, total committed:122046775, progress insts committed: 164091, IPC: 0.0163927
18359162241012: Event_283: system.switch_cpus1 progress event, total committed:122092851, progress insts committed: 163044, IPC: 0.0162881
18359162241012: Event_284: system.switch_cpus2 progress event, total committed:122036574, progress insts committed: 162852, IPC: 0.0162689
18359162241012: Event_285: system.switch_cpus3 progress event, total committed:122088951, progress insts committed: 162891, IPC: 0.0162728
18362495574345: Event_285: system.switch_cpus3 progress event, total committed:122252142, progress insts committed: 163191, IPC: 0.0163028
18362495574345: Event_284: system.switch_cpus2 progress event, total committed:122196873, progress insts committed: 160299, IPC: 0.0160139
18362495574345: Event_283: system.switch_cpus1 progress event, total committed:122255664, progress insts committed: 162813, IPC: 0.016265
18362495574345: Event_282: system.switch_cpus0 progress event, total committed:122206771, progress insts committed: 159996, IPC: 0.0159836
18365828907678: Event_282: system.switch_cpus0 progress event, total committed:122366599, progress insts committed: 159828, IPC: 0.0159668
18365828907678: Event_283: system.switch_cpus1 progress event, total committed:122419833, progress insts committed: 164169, IPC: 0.0164005
18365828907678: Event_284: system.switch_cpus2 progress event, total committed:122356518, progress insts committed: 159645, IPC: 0.0159485
18365828907678: Event_285: system.switch_cpus3 progress event, total committed:122415861, progress insts committed: 163719, IPC: 0.0163555
18369162241011: Event_285: system.switch_cpus3 progress event, total committed:122578875, progress insts committed: 163014, IPC: 0.0162851
18369162241011: Event_284: system.switch_cpus2 progress event, total committed:122516886, progress insts committed: 160368, IPC: 0.0160208
18369162241011: Event_283: system.switch_cpus1 progress event, total committed:122582541, progress insts committed: 162708, IPC: 0.0162545
18369162241011: Event_282: system.switch_cpus0 progress event, total committed:122527786, progress insts committed: 161187, IPC: 0.0161026
18372495574344: Event_282: system.switch_cpus0 progress event, total committed:122690104, progress insts committed: 162318, IPC: 0.0162156
18372495574344: Event_283: system.switch_cpus1 progress event, total committed:122749020, progress insts committed: 166479, IPC: 0.0166313
18372495574344: Event_284: system.switch_cpus2 progress event, total committed:122680725, progress insts committed: 163839, IPC: 0.0163675
18372495574344: Event_285: system.switch_cpus3 progress event, total committed:122745060, progress insts committed: 166185, IPC: 0.0166019
18375828907677: Event_285: system.switch_cpus3 progress event, total committed:122910048, progress insts committed: 164988, IPC: 0.0164823
18375828907677: Event_284: system.switch_cpus2 progress event, total committed:122843292, progress insts committed: 162567, IPC: 0.0162404
18375828907677: Event_283: system.switch_cpus1 progress event, total committed:122913651, progress insts committed: 164631, IPC: 0.0164466
18375828907677: Event_282: system.switch_cpus0 progress event, total committed:122852641, progress insts committed: 162537, IPC: 0.0162374
18379162241010: Event_282: system.switch_cpus0 progress event, total committed:123015499, progress insts committed: 162858, IPC: 0.0162695
18379162241010: Event_283: system.switch_cpus1 progress event, total committed:123079686, progress insts committed: 166035, IPC: 0.0165869
18379162241010: Event_284: system.switch_cpus2 progress event, total committed:123006480, progress insts committed: 163188, IPC: 0.0163025
18379162241010: Event_285: system.switch_cpus3 progress event, total committed:123075177, progress insts committed: 165129, IPC: 0.0164964
18382495574343: Event_285: system.switch_cpus3 progress event, total committed:123240405, progress insts committed: 165228, IPC: 0.0165063
18382495574343: Event_284: system.switch_cpus2 progress event, total committed:123168735, progress insts committed: 162255, IPC: 0.0162093
18382495574343: Event_283: system.switch_cpus1 progress event, total committed:123244224, progress insts committed: 164538, IPC: 0.0164373
18382495574343: Event_282: system.switch_cpus0 progress event, total committed:123179425, progress insts committed: 163926, IPC: 0.0163762
18385828907676: Event_282: system.switch_cpus0 progress event, total committed:123305408, progress insts committed: 125983, IPC: 0.0125857
18385828907676: Event_283: system.switch_cpus1 progress event, total committed:124369937, progress insts committed: 1125713, IPC: 0.112459
18385828907676: Event_284: system.switch_cpus2 progress event, total committed:123295032, progress insts committed: 126297, IPC: 0.0126171
18385828907676: Event_285: system.switch_cpus3 progress event, total committed:124299122, progress insts committed: 1058717, IPC: 0.105766
18389162241009: Event_285: system.switch_cpus3 progress event, total committed:125600702, progress insts committed: 1301580, IPC: 0.130028
18389162241009: Event_284: system.switch_cpus2 progress event, total committed:124397972, progress insts committed: 1102940, IPC: 0.110184
18389162241009: Event_283: system.switch_cpus1 progress event, total committed:125666942, progress insts committed: 1297005, IPC: 0.129571
18389162241009: Event_282: system.switch_cpus0 progress event, total committed:124559444, progress insts committed: 1254036, IPC: 0.125278
18392495574342: Event_282: system.switch_cpus0 progress event, total committed:125934660, progress insts committed: 1375216, IPC: 0.137384
18392495574342: Event_283: system.switch_cpus1 progress event, total committed:127050692, progress insts committed: 1383750, IPC: 0.138237
18392495574342: Event_284: system.switch_cpus2 progress event, total committed:125779382, progress insts committed: 1381410, IPC: 0.138003
18392495574342: Event_285: system.switch_cpus3 progress event, total committed:126981302, progress insts committed: 1380600, IPC: 0.137922
18395828907675: Event_285: system.switch_cpus3 progress event, total committed:128395517, progress insts committed: 1414215, IPC: 00.14128
18395828907675: Event_284: system.switch_cpus2 progress event, total committed:127177261, progress insts committed: 1397879, IPC: 0.139648
18395828907675: Event_283: system.switch_cpus1 progress event, total committed:128465702, progress insts committed: 1415010, IPC: 0.141359
18395828907675: Event_282: system.switch_cpus0 progress event, total committed:127339725, progress insts committed: 1405065, IPC: 0.140366
18399162241008: Event_282: system.switch_cpus0 progress event, total committed:128748645, progress insts committed: 1408920, IPC: 0.140751
18399162241008: Event_283: system.switch_cpus1 progress event, total committed:129873752, progress insts committed: 1408050, IPC: 0.140664
18399162241008: Event_284: system.switch_cpus2 progress event, total committed:128586107, progress insts committed: 1408846, IPC: 0.140744
18399162241008: Event_285: system.switch_cpus3 progress event, total committed:129804542, progress insts committed: 1409025, IPC: 0.140762
18402495574341: Event_285: system.switch_cpus3 progress event, total committed:131194022, progress insts committed: 1389480, IPC: 0.138809
18402495574341: Event_284: system.switch_cpus2 progress event, total committed:130007582, progress insts committed: 1421475, IPC: 0.142005
18402495574341: Event_283: system.switch_cpus1 progress event, total committed:131260262, progress insts committed: 1386510, IPC: 0.138512
18402495574341: Event_282: system.switch_cpus0 progress event, total committed:130170285, progress insts committed: 1421640, IPC: 0.142022
18405828907674: Event_282: system.switch_cpus0 progress event, total committed:131560065, progress insts committed: 1389780, IPC: 0.138839
18405828907674: Event_283: system.switch_cpus1 progress event, total committed:132664112, progress insts committed: 1403850, IPC: 0.140245
18405828907674: Event_284: system.switch_cpus2 progress event, total committed:131398937, progress insts committed: 1391355, IPC: 0.138996
18405828907674: Event_285: system.switch_cpus3 progress event, total committed:132596222, progress insts committed: 1402200, IPC: 00.14008
warn: MOVNTDQ: Ignoring non-temporal hint, modeling as cacheable!
18409162241007: Event_285: system.switch_cpus3 progress event, total committed:133801170, progress insts committed: 1204948, IPC: 0.120374
18409162241007: Event_284: system.switch_cpus2 progress event, total committed:133014062, progress insts committed: 1615125, IPC: 0.161351
18409162241007: Event_283: system.switch_cpus1 progress event, total committed:133815954, progress insts committed: 1151842, IPC: 0.115069
18409162241007: Event_282: system.switch_cpus0 progress event, total committed:133175100, progress insts committed: 1615035, IPC: 0.161342
18412495574340: Event_282: system.switch_cpus0 progress event, total committed:134190592, progress insts committed: 1015492, IPC: 0.101448
18412495574340: Event_283: system.switch_cpus1 progress event, total committed:134420616, progress insts committed: 604662, IPC: 0.0604057
18412495574340: Event_284: system.switch_cpus2 progress event, total committed:134158431, progress insts committed: 1144369, IPC: 0.114322
18412495574340: Event_285: system.switch_cpus3 progress event, total committed:134405931, progress insts committed: 604761, IPC: 0.0604156
18415828907673: Event_285: system.switch_cpus3 progress event, total committed:135040683, progress insts committed: 634752, IPC: 0.0634117
18415828907673: Event_284: system.switch_cpus2 progress event, total committed:134793183, progress insts committed: 634752, IPC: 0.0634117
18415828907673: Event_283: system.switch_cpus1 progress event, total committed:135055401, progress insts committed: 634785, IPC: 0.063415
18415828907673: Event_282: system.switch_cpus0 progress event, total committed:134825374, progress insts committed: 634782, IPC: 0.0634147
18419162241006: Event_282: system.switch_cpus0 progress event, total committed:135400498, progress insts committed: 575124, IPC: 0.0574549
18419162241006: Event_283: system.switch_cpus1 progress event, total committed:136000220, progress insts committed: 944819, IPC: 0.0943874
18419162241006: Event_284: system.switch_cpus2 progress event, total committed:135368310, progress insts committed: 575127, IPC: 0.0574552
18419162241006: Event_285: system.switch_cpus3 progress event, total committed:135924776, progress insts committed: 884093, IPC: 0.0883209
18422495574339: Event_285: system.switch_cpus3 progress event, total committed:137529380, progress insts committed: 1604604, IPC: 000.1603
18422495574339: Event_284: system.switch_cpus2 progress event, total committed:136310180, progress insts committed: 941870, IPC: 0.0940928
18422495574339: Event_283: system.switch_cpus1 progress event, total committed:137602490, progress insts committed: 1602270, IPC: 0.160067
18422495574339: Event_282: system.switch_cpus0 progress event, total committed:136461813, progress insts committed: 1061315, IPC: 0.106025
18425828907672: Event_282: system.switch_cpus0 progress event, total committed:137785083, progress insts committed: 1323270, IPC: 0.132195
18425828907672: Event_283: system.switch_cpus1 progress event, total committed:138880340, progress insts committed: 1277850, IPC: 0.127657
18425828907672: Event_284: system.switch_cpus2 progress event, total committed:137641115, progress insts committed: 1330935, IPC: 00.13296
18425828907672: Event_285: system.switch_cpus3 progress event, total committed:138805965, progress insts committed: 1276585, IPC: 0.127531
18429162241005: Event_285: system.switch_cpus3 progress event, total committed:139997915, progress insts committed: 1191950, IPC: 0.119076
18429162241005: Event_284: system.switch_cpus2 progress event, total committed:138849500, progress insts committed: 1208385, IPC: 0.120718
18429162241005: Event_283: system.switch_cpus1 progress event, total committed:140070876, progress insts committed: 1190536, IPC: 0.118935
18429162241005: Event_282: system.switch_cpus0 progress event, total committed:138995883, progress insts committed: 1210800, IPC: 0.120959
18432495574338: Event_282: system.switch_cpus0 progress event, total committed:140227023, progress insts committed: 1231140, IPC: 0.122991
18432495574338: Event_283: system.switch_cpus1 progress event, total committed:141303350, progress insts committed: 1232474, IPC: 0.123124
18432495574338: Event_284: system.switch_cpus2 progress event, total committed:140085500, progress insts committed: 1236000, IPC: 0.123476
18432495574338: Event_285: system.switch_cpus3 progress event, total committed:141227660, progress insts committed: 1229745, IPC: 0.122852
18435828907671: Event_285: system.switch_cpus3 progress event, total committed:142555265, progress insts committed: 1327605, IPC: 0.132628
18435828907671: Event_284: system.switch_cpus2 progress event, total committed:141356330, progress insts committed: 1270830, IPC: 0.126956
18435828907671: Event_283: system.switch_cpus1 progress event, total committed:142634060, progress insts committed: 1330710, IPC: 0.132938
18435828907671: Event_282: system.switch_cpus0 progress event, total committed:141505923, progress insts committed: 1278900, IPC: 0.127762
18439162241004: Event_282: system.switch_cpus0 progress event, total committed:142848018, progress insts committed: 1342095, IPC: 0.134075
18439162241004: Event_283: system.switch_cpus1 progress event, total committed:143977220, progress insts committed: 1343160, IPC: 0.134182
18439162241004: Event_284: system.switch_cpus2 progress event, total committed:142697570, progress insts committed: 1341240, IPC: 00.13399
18439162241004: Event_285: system.switch_cpus3 progress event, total committed:143898740, progress insts committed: 1343475, IPC: 0.134213
18442495574337: Event_285: system.switch_cpus3 progress event, total committed:145262900, progress insts committed: 1364160, IPC: 00.13628
18442495574337: Event_284: system.switch_cpus2 progress event, total committed:144062045, progress insts committed: 1364475, IPC: 0.136311
18442495574337: Event_283: system.switch_cpus1 progress event, total committed:145342475, progress insts committed: 1365255, IPC: 0.136389
18442495574337: Event_282: system.switch_cpus0 progress event, total committed:144211473, progress insts committed: 1363455, IPC: 0.136209
18445828907670: Event_282: system.switch_cpus0 progress event, total committed:145967794, progress insts committed: 1756321, IPC: 0.175456
18445828907670: Event_283: system.switch_cpus1 progress event, total committed:146196567, progress insts committed: 854092, IPC: 0.0853238
18445828907670: Event_284: system.switch_cpus2 progress event, total committed:145938540, progress insts committed: 1876495, IPC: 0.187462
18445828907670: Event_285: system.switch_cpus3 progress event, total committed:146179506, progress insts committed: 916606, IPC: 0.0915689
18449162241003: Event_285: system.switch_cpus3 progress event, total committed:146865741, progress insts committed: 686235, IPC: 0.0685549
18449162241003: Event_284: system.switch_cpus2 progress event, total committed:146624775, progress insts committed: 686235, IPC: 0.0685549
18449162241003: Event_283: system.switch_cpus1 progress event, total committed:146882802, progress insts committed: 686235, IPC: 0.0685549
18449162241003: Event_282: system.switch_cpus0 progress event, total committed:146653996, progress insts committed: 686202, IPC: 0.0685516
18452495574336: Event_282: system.switch_cpus0 progress event, total committed:147327229, progress insts committed: 673233, IPC: 0.067256
18452495574336: Event_283: system.switch_cpus1 progress event, total committed:147556002, progress insts committed: 673200, IPC: 0.0672527
18452495574336: Event_284: system.switch_cpus2 progress event, total committed:147298008, progress insts committed: 673233, IPC: 0.067256
18452495574336: Event_285: system.switch_cpus3 progress event, total committed:147538941, progress insts committed: 673200, IPC: 0.0672527
18455828907669: Event_285: system.switch_cpus3 progress event, total committed:149320837, progress insts committed: 1781896, IPC: 0.178011
18455828907669: Event_284: system.switch_cpus2 progress event, total committed:147969539, progress insts committed: 671531, IPC: 0.0670859
18455828907669: Event_283: system.switch_cpus1 progress event, total committed:149417279, progress insts committed: 1861277, IPC: 0.185942
18455828907669: Event_282: system.switch_cpus0 progress event, total committed:148126322, progress insts committed: 799093, IPC: 0.0798294
18459162241002: Event_282: system.switch_cpus0 progress event, total committed:150167522, progress insts committed: 2041200, IPC: 0.203916
18459162241002: Event_283: system.switch_cpus1 progress event, total committed:151458221, progress insts committed: 2040942, IPC: 00.20389
18459162241002: Event_284: system.switch_cpus2 progress event, total committed:150010723, progress insts committed: 2041184, IPC: 0.203914
18459162241002: Event_285: system.switch_cpus3 progress event, total committed:151362019, progress insts committed: 2041182, IPC: 0.203914
18462495574335: Event_285: system.switch_cpus3 progress event, total committed:153042318, progress insts committed: 1680299, IPC: 0.167862
18462495574335: Event_284: system.switch_cpus2 progress event, total committed:151850899, progress insts committed: 1840176, IPC: 0.183834
18462495574335: Event_283: system.switch_cpus1 progress event, total committed:153125688, progress insts committed: 1667467, IPC: 00.16658
18462495574335: Event_282: system.switch_cpus0 progress event, total committed:152007706, progress insts committed: 1840184, IPC: 0.183834
18465828907668: Event_282: system.switch_cpus0 progress event, total committed:153348271, progress insts committed: 1340565, IPC: 0.133922
18465828907668: Event_283: system.switch_cpus1 progress event, total committed:154459248, progress insts committed: 1333560, IPC: 0.133223
18465828907668: Event_284: system.switch_cpus2 progress event, total committed:153213288, progress insts committed: 1362389, IPC: 0.136103
18465828907668: Event_285: system.switch_cpus3 progress event, total committed:154375763, progress insts committed: 1333445, IPC: 0.133211
18469162241001: Event_285: system.switch_cpus3 progress event, total committed:155723208, progress insts committed: 1347445, IPC: 00.13461
18469162241001: Event_284: system.switch_cpus2 progress event, total committed:154560540, progress insts committed: 1347252, IPC: 00.13459
18469162241001: Event_283: system.switch_cpus1 progress event, total committed:155806653, progress insts committed: 1347405, IPC: 0.134606
18469162241001: Event_282: system.switch_cpus0 progress event, total committed:154695631, progress insts committed: 1347360, IPC: 0.134601
18472495574334: Event_282: system.switch_cpus0 progress event, total committed:156077566, progress insts committed: 1381935, IPC: 0.138055
18472495574334: Event_283: system.switch_cpus1 progress event, total committed:157188648, progress insts committed: 1381995, IPC: 0.138061
18472495574334: Event_284: system.switch_cpus2 progress event, total committed:155942448, progress insts committed: 1381908, IPC: 0.138053
18472495574334: Event_285: system.switch_cpus3 progress event, total committed:157105443, progress insts committed: 1382235, IPC: 0.138085
18475828907667: Event_285: system.switch_cpus3 progress event, total committed:158508288, progress insts committed: 1402845, IPC: 0.140144
18475828907667: Event_284: system.switch_cpus2 progress event, total committed:157345338, progress insts committed: 1402890, IPC: 0.140149
18475828907667: Event_283: system.switch_cpus1 progress event, total committed:158591808, progress insts committed: 1403160, IPC: 0.140176
18475828907667: Event_282: system.switch_cpus0 progress event, total committed:157480306, progress insts committed: 1402740, IPC: 0.140134
18479162241000: Event_282: system.switch_cpus0 progress event, total committed:158985395, progress insts committed: 1505089, IPC: 0.150358
18479162241000: Event_283: system.switch_cpus1 progress event, total committed:159206611, progress insts committed: 614803, IPC: 0.0614188
18479162241000: Event_284: system.switch_cpus2 progress event, total committed:158960431, progress insts committed: 1615093, IPC: 0.161348
18479162241000: Event_285: system.switch_cpus3 progress event, total committed:159188890, progress insts committed: 680602, IPC: 0.0679921
18482495574333: Event_285: system.switch_cpus3 progress event, total committed:159776752, progress insts committed: 587862, IPC: 0.0587274
18482495574333: Event_284: system.switch_cpus2 progress event, total committed:159548293, progress insts committed: 587862, IPC: 0.0587274
18482495574333: Event_283: system.switch_cpus1 progress event, total committed:159794476, progress insts committed: 587865, IPC: 0.0587277
18482495574333: Event_282: system.switch_cpus0 progress event, total committed:159573260, progress insts committed: 587865, IPC: 0.0587277
18485828907666: Event_282: system.switch_cpus0 progress event, total committed:160154387, progress insts committed: 581127, IPC: 0.0580546
18485828907666: Event_283: system.switch_cpus1 progress event, total committed:160375603, progress insts committed: 581127, IPC: 0.0580546
18485828907666: Event_284: system.switch_cpus2 progress event, total committed:160129423, progress insts committed: 581130, IPC: 0.0580549
18485828907666: Event_285: system.switch_cpus3 progress event, total committed:160357882, progress insts committed: 581130, IPC: 0.0580549
18489162240999: Event_285: system.switch_cpus3 progress event, total committed:162016795, progress insts committed: 1658913, IPC: 0.165725
18489162240999: Event_284: system.switch_cpus2 progress event, total committed:160920590, progress insts committed: 791167, IPC: 0.0790376
18489162240999: Event_283: system.switch_cpus1 progress event, total committed:162112715, progress insts committed: 1737112, IPC: 0.173537
18489162240999: Event_282: system.switch_cpus0 progress event, total committed:161033213, progress insts committed: 878826, IPC: 0.0877947
18492495574332: Event_282: system.switch_cpus0 progress event, total committed:163414796, progress insts committed: 2381583, IPC: 00.23792
18492495574332: Event_283: system.switch_cpus1 progress event, total committed:164492730, progress insts committed: 2380015, IPC: 0.237763
18492495574332: Event_284: system.switch_cpus2 progress event, total committed:163314025, progress insts committed: 2393435, IPC: 0.239104
18492495574332: Event_285: system.switch_cpus3 progress event, total committed:164399996, progress insts committed: 2383201, IPC: 0.238082
18495828907665: Event_285: system.switch_cpus3 progress event, total committed:166806360, progress insts committed: 2406364, IPC: 0.240396
18495828907665: Event_284: system.switch_cpus2 progress event, total committed:165718456, progress insts committed: 2404431, IPC: 0.240203
18495828907665: Event_283: system.switch_cpus1 progress event, total committed:166922300, progress insts committed: 2429570, IPC: 0.242714
18495828907665: Event_282: system.switch_cpus0 progress event, total committed:165821403, progress insts committed: 2406607, IPC: 00.24042
18499162240998: Event_282: system.switch_cpus0 progress event, total committed:168261533, progress insts committed: 2440130, IPC: 0.243769
18499162240998: Event_283: system.switch_cpus1 progress event, total committed:169370460, progress insts committed: 2448160, IPC: 0.244571
18499162240998: Event_284: system.switch_cpus2 progress event, total committed:168143076, progress insts committed: 2424620, IPC: 00.24222
18499162240998: Event_285: system.switch_cpus3 progress event, total committed:169238955, progress insts committed: 2432595, IPC: 0.243016
18502495574331: Event_285: system.switch_cpus3 progress event, total committed:171676407, progress insts committed: 2437452, IPC: 0.243501
18502495574331: Event_284: system.switch_cpus2 progress event, total committed:170558863, progress insts committed: 2415787, IPC: 0.241337
18502495574331: Event_283: system.switch_cpus1 progress event, total committed:171801240, progress insts committed: 2430780, IPC: 0.242835
18502495574331: Event_282: system.switch_cpus0 progress event, total committed:170669433, progress insts committed: 2407900, IPC: 0.240549
18505828907664: Event_282: system.switch_cpus0 progress event, total committed:173165993, progress insts committed: 2496560, IPC: 0.249406
18505828907664: Event_283: system.switch_cpus1 progress event, total committed:175536513, progress insts committed: 3735273, IPC: 0.373154
18505828907664: Event_284: system.switch_cpus2 progress event, total committed:173025956, progress insts committed: 2467093, IPC: 0.246463
18505828907664: Event_285: system.switch_cpus3 progress event, total committed:174801138, progress insts committed: 3124731, IPC: 0.312161
18509162240997: Event_285: system.switch_cpus3 progress event, total committed:180319415, progress insts committed: 5518277, IPC: 0.551276
18509162240997: Event_284: system.switch_cpus2 progress event, total committed:178385770, progress insts committed: 5359814, IPC: 0.535445
18509162240997: Event_283: system.switch_cpus1 progress event, total committed:180497142, progress insts committed: 4960629, IPC: 0.495567
18509162240997: Event_282: system.switch_cpus0 progress event, total committed:178631406, progress insts committed: 5465413, IPC: 0.545995
18512495574330: Event_282: system.switch_cpus0 progress event, total committed:184220080, progress insts committed: 5588674, IPC: 0.558309
18512495574330: Event_283: system.switch_cpus1 progress event, total committed:186075160, progress insts committed: 5578018, IPC: 0.557244
18512495574330: Event_284: system.switch_cpus2 progress event, total committed:183995340, progress insts committed: 5609570, IPC: 0.560396
18512495574330: Event_285: system.switch_cpus3 progress event, total committed:185924535, progress insts committed: 5605120, IPC: 0.559951
18515828907663: Event_285: system.switch_cpus3 progress event, total committed:191669561, progress insts committed: 5745026, IPC: 0.573928
18515828907663: Event_284: system.switch_cpus2 progress event, total committed:189690469, progress insts committed: 5695129, IPC: 0.568943
18515828907663: Event_283: system.switch_cpus1 progress event, total committed:191799023, progress insts committed: 5723863, IPC: 0.571814
18515828907663: Event_282: system.switch_cpus0 progress event, total committed:189920111, progress insts committed: 5700031, IPC: 0.569433
18519162240996: Event_282: system.switch_cpus0 progress event, total committed:194995034, progress insts committed: 5074923, IPC: 0.506985
18519162240996: Event_283: system.switch_cpus1 progress event, total committed:196081526, progress insts committed: 4282503, IPC: 0.427822
18519162240996: Event_284: system.switch_cpus2 progress event, total committed:194861837, progress insts committed: 5171368, IPC: 00.51662
18519162240996: Event_285: system.switch_cpus3 progress event, total committed:195992637, progress insts committed: 4323076, IPC: 0.431875
18522495574329: Event_285: system.switch_cpus3 progress event, total committed:198355433, progress insts committed: 2362796, IPC: 0.236043
18522495574329: Event_284: system.switch_cpus2 progress event, total committed:197214517, progress insts committed: 2352680, IPC: 0.235033
18522495574329: Event_283: system.switch_cpus1 progress event, total committed:198458304, progress insts committed: 2376778, IPC: 00.23744
18522495574329: Event_282: system.switch_cpus0 progress event, total committed:197365754, progress insts committed: 2370720, IPC: 0.236835
18525828907662: Event_282: system.switch_cpus0 progress event, total committed:199605244, progress insts committed: 2239490, IPC: 0.223725
18525828907662: Event_283: system.switch_cpus1 progress event, total committed:200688541, progress insts committed: 2230237, IPC: 0.222801
18525828907662: Event_284: system.switch_cpus2 progress event, total committed:199445372, progress insts committed: 2230855, IPC: 0.222862
18525828907662: Event_285: system.switch_cpus3 progress event, total committed:200605216, progress insts committed: 2249783, IPC: 0.224753
18529162240995: Event_285: system.switch_cpus3 progress event, total committed:202890517, progress insts committed: 2285301, IPC: 0.228302
18529162240995: Event_284: system.switch_cpus2 progress event, total committed:201714452, progress insts committed: 2269080, IPC: 0.226681
18529162240995: Event_283: system.switch_cpus1 progress event, total committed:202961086, progress insts committed: 2272545, IPC: 0.227027
18529162240995: Event_282: system.switch_cpus0 progress event, total committed:201879054, progress insts committed: 2273810, IPC: 0.227154
18532495574328: Event_282: system.switch_cpus0 progress event, total committed:204144394, progress insts committed: 2265340, IPC: 0.226307
18532495574328: Event_283: system.switch_cpus1 progress event, total committed:205250237, progress insts committed: 2289151, IPC: 0.228686
18532495574328: Event_284: system.switch_cpus2 progress event, total committed:203996736, progress insts committed: 2282284, IPC: 0000.228
18532495574328: Event_285: system.switch_cpus3 progress event, total committed:205145741, progress insts committed: 2255224, IPC: 0.225297
18535828907661: Event_285: system.switch_cpus3 progress event, total committed:207455902, progress insts committed: 2310161, IPC: 0.230785
18535828907661: Event_284: system.switch_cpus2 progress event, total committed:206275052, progress insts committed: 2278316, IPC: 0.227604
18535828907661: Event_283: system.switch_cpus1 progress event, total committed:207562991, progress insts committed: 2312754, IPC: 0.231044
18535828907661: Event_282: system.switch_cpus0 progress event, total committed:206467374, progress insts committed: 2322980, IPC: 0.232066
18539162240994: Event_282: system.switch_cpus0 progress event, total committed:211010284, progress insts committed: 4542910, IPC: 0.453837
18539162240994: Event_283: system.switch_cpus1 progress event, total committed:212793906, progress insts committed: 5230915, IPC: 0.522568
18539162240994: Event_284: system.switch_cpus2 progress event, total committed:210661064, progress insts committed: 4386012, IPC: 0.438163
18539162240994: Event_285: system.switch_cpus3 progress event, total committed:212645433, progress insts committed: 5189531, IPC: 0.518434
18542495574327: Event_285: system.switch_cpus3 progress event, total committed:217808586, progress insts committed: 5163153, IPC: 0.515799
18542495574327: Event_284: system.switch_cpus2 progress event, total committed:215837544, progress insts committed: 5176480, IPC: 00.51713
18542495574327: Event_283: system.switch_cpus1 progress event, total committed:217967816, progress insts committed: 5173910, IPC: 0.516874
18542495574327: Event_282: system.switch_cpus0 progress event, total committed:216180839, progress insts committed: 5170555, IPC: 0.516538
18545828907660: Event_282: system.switch_cpus0 progress event, total committed:221311081, progress insts committed: 5130242, IPC: 0.512511
18545828907660: Event_283: system.switch_cpus1 progress event, total committed:223152501, progress insts committed: 5184685, IPC: 00.51795
18545828907660: Event_284: system.switch_cpus2 progress event, total committed:220998297, progress insts committed: 5160753, IPC: 0.515559
18545828907660: Event_285: system.switch_cpus3 progress event, total committed:222960601, progress insts committed: 5152015, IPC: 0.514686
18549162240993: Event_285: system.switch_cpus3 progress event, total committed:226309375, progress insts committed: 3348774, IPC: 0.334543
18549162240993: Event_284: system.switch_cpus2 progress event, total committed:225026610, progress insts committed: 4028313, IPC: 0.402428
18549162240993: Event_283: system.switch_cpus1 progress event, total committed:226438735, progress insts committed: 3286234, IPC: 0.328295
18549162240993: Event_282: system.switch_cpus0 progress event, total committed:225196268, progress insts committed: 3885187, IPC: 00.38813
18552495574326: Event_282: system.switch_cpus0 progress event, total committed:227532499, progress insts committed: 2336231, IPC: 0.233389
18552495574326: Event_283: system.switch_cpus1 progress event, total committed:228837230, progress insts committed: 2398495, IPC: 00.23961
18552495574326: Event_284: system.switch_cpus2 progress event, total committed:227402606, progress insts committed: 2375996, IPC: 0.237362
18552495574326: Event_285: system.switch_cpus3 progress event, total committed:228713535, progress insts committed: 2404160, IPC: 0.240176
18555828907659: Event_285: system.switch_cpus3 progress event, total committed:231084915, progress insts committed: 2371380, IPC: 0.236901
18555828907659: Event_284: system.switch_cpus2 progress event, total committed:229766895, progress insts committed: 2364289, IPC: 0.236192
18555828907659: Event_283: system.switch_cpus1 progress event, total committed:231253105, progress insts committed: 2415875, IPC: 0.241346
18555828907659: Event_282: system.switch_cpus0 progress event, total committed:229927038, progress insts committed: 2394539, IPC: 0.239214
18559162240992: Event_282: system.switch_cpus0 progress event, total committed:232261788, progress insts committed: 2334750, IPC: 0.233242
18559162240992: Event_283: system.switch_cpus1 progress event, total committed:233595665, progress insts committed: 2342560, IPC: 0.234022
18559162240992: Event_284: system.switch_cpus2 progress event, total committed:232095297, progress insts committed: 2328402, IPC: 0.232607
18559162240992: Event_285: system.switch_cpus3 progress event, total committed:233412350, progress insts committed: 2327435, IPC: 0.232511
18562495574325: Event_285: system.switch_cpus3 progress event, total committed:235785977, progress insts committed: 2373627, IPC: 0.237125
18562495574325: Event_284: system.switch_cpus2 progress event, total committed:234518290, progress insts committed: 2422993, IPC: 0.242057
18562495574325: Event_283: system.switch_cpus1 progress event, total committed:235995417, progress insts committed: 2399752, IPC: 0.239735
18562495574325: Event_282: system.switch_cpus0 progress event, total committed:234678268, progress insts committed: 2416480, IPC: 0.241406
18565828907658: Event_282: system.switch_cpus0 progress event, total committed:237186818, progress insts committed: 2508550, IPC: 0.250604
18565828907658: Event_283: system.switch_cpus1 progress event, total committed:240138392, progress insts committed: 4142975, IPC: 0.413883
18565828907658: Event_284: system.switch_cpus2 progress event, total committed:237028335, progress insts committed: 2510045, IPC: 0.250753
18565828907658: Event_285: system.switch_cpus3 progress event, total committed:239764507, progress insts committed: 3978530, IPC: 0.397455
18569162240991: Event_285: system.switch_cpus3 progress event, total committed:244869007, progress insts committed: 5104500, IPC: 00.50994
18569162240991: Event_284: system.switch_cpus2 progress event, total committed:242843064, progress insts committed: 5814729, IPC: 0.580891
18569162240991: Event_283: system.switch_cpus1 progress event, total committed:245264496, progress insts committed: 5126104, IPC: 0.512098
18569162240991: Event_282: system.switch_cpus0 progress event, total committed:243157570, progress insts committed: 5970752, IPC: 0.596478
18572495574324: Event_282: system.switch_cpus0 progress event, total committed:248697383, progress insts committed: 5539813, IPC: 0.553427
18572495574324: Event_283: system.switch_cpus1 progress event, total committed:250852423, progress insts committed: 5587927, IPC: 0.558234
18572495574324: Event_284: system.switch_cpus2 progress event, total committed:248405368, progress insts committed: 5562304, IPC: 0.555674
18572495574324: Event_285: system.switch_cpus3 progress event, total committed:250489255, progress insts committed: 5620248, IPC: 0.561463
18575828907657: Event_285: system.switch_cpus3 progress event, total committed:256039207, progress insts committed: 5549952, IPC: 00.55444
18575828907657: Event_284: system.switch_cpus2 progress event, total committed:253918642, progress insts committed: 5513274, IPC: 0.550776
18575828907657: Event_283: system.switch_cpus1 progress event, total committed:256416475, progress insts committed: 5564052, IPC: 0.555849
18575828907657: Event_282: system.switch_cpus0 progress event, total committed:254219198, progress insts committed: 5521815, IPC: 0.551629
18579162240990: Event_282: system.switch_cpus0 progress event, total committed:257465430, progress insts committed: 3246232, IPC: 0.324299
18579162240990: Event_283: system.switch_cpus1 progress event, total committed:257547728, progress insts committed: 1131253, IPC: 0.113012
18579162240990: Event_284: system.switch_cpus2 progress event, total committed:257454494, progress insts committed: 3535852, IPC: 0.353232
18579162240990: Event_285: system.switch_cpus3 progress event, total committed:257536379, progress insts committed: 1497172, IPC: 0.149567
18582495574323: Event_285: system.switch_cpus3 progress event, total committed:257692193, progress insts committed: 155814, IPC: 0.0155658
18582495574323: Event_284: system.switch_cpus2 progress event, total committed:257610302, progress insts committed: 155808, IPC: 0.0155652
18582495574323: Event_283: system.switch_cpus1 progress event, total committed:257705528, progress insts committed: 157800, IPC: 0.0157642
18582495574323: Event_282: system.switch_cpus0 progress event, total committed:257621163, progress insts committed: 155733, IPC: 0.0155577
18585828907656: Event_282: system.switch_cpus0 progress event, total committed:257774316, progress insts committed: 153153, IPC: 000.0153
18585828907656: Event_283: system.switch_cpus1 progress event, total committed:257860163, progress insts committed: 154635, IPC: 0.015448
18585828907656: Event_284: system.switch_cpus2 progress event, total committed:257762282, progress insts committed: 151980, IPC: 0.0151828
18585828907656: Event_285: system.switch_cpus3 progress event, total committed:257846633, progress insts committed: 154440, IPC: 0.0154286
18589162240989: Event_285: system.switch_cpus3 progress event, total committed:258013136, progress insts committed: 166503, IPC: 0.0166336
18589162240989: Event_284: system.switch_cpus2 progress event, total committed:257918021, progress insts committed: 155739, IPC: 0.0155583
18589162240989: Event_283: system.switch_cpus1 progress event, total committed:258028139, progress insts committed: 167976, IPC: 0.0167808
18589162240989: Event_282: system.switch_cpus0 progress event, total committed:257931240, progress insts committed: 156924, IPC: 0.0156767
18592495574322: Event_282: system.switch_cpus0 progress event, total committed:258100368, progress insts committed: 169128, IPC: 0.0168959
18592495574322: Event_283: system.switch_cpus1 progress event, total committed:258197957, progress insts committed: 169818, IPC: 0.0169648
18592495574322: Event_284: system.switch_cpus2 progress event, total committed:258087686, progress insts committed: 169665, IPC: 0.0169495
18592495574322: Event_285: system.switch_cpus3 progress event, total committed:258183326, progress insts committed: 170190, IPC: 0.017002
18595828907655: Event_285: system.switch_cpus3 progress event, total committed:258354074, progress insts committed: 170748, IPC: 0.0170577
18595828907655: Event_284: system.switch_cpus2 progress event, total committed:258256373, progress insts committed: 168687, IPC: 0.0168518
18595828907655: Event_283: system.switch_cpus1 progress event, total committed:258368594, progress insts committed: 170637, IPC: 0.0170466
18595828907655: Event_282: system.switch_cpus0 progress event, total committed:258268920, progress insts committed: 168552, IPC: 0.0168383
18599162240988: Event_282: system.switch_cpus0 progress event, total committed:258410577, progress insts committed: 141657, IPC: 0.0141515
18599162240988: Event_283: system.switch_cpus1 progress event, total committed:259893132, progress insts committed: 1524538, IPC: 0.152301
18599162240988: Event_284: system.switch_cpus2 progress event, total committed:258398156, progress insts committed: 141783, IPC: 0.0141641
18599162240988: Event_285: system.switch_cpus3 progress event, total committed:259610456, progress insts committed: 1256382, IPC: 0.125513
18602495574321: Event_285: system.switch_cpus3 progress event, total committed:261427448, progress insts committed: 1816992, IPC: 0.181518
18602495574321: Event_284: system.switch_cpus2 progress event, total committed:259642603, progress insts committed: 1244447, IPC: 00.12432
18602495574321: Event_283: system.switch_cpus1 progress event, total committed:261670898, progress insts committed: 1777766, IPC: 0.177599
18602495574321: Event_282: system.switch_cpus0 progress event, total committed:259883283, progress insts committed: 1472706, IPC: 0.147123
18605828907654: Event_282: system.switch_cpus0 progress event, total committed:261971496, progress insts committed: 2088213, IPC: 0.208612
18605828907654: Event_283: system.switch_cpus1 progress event, total committed:262723115, progress insts committed: 1052217, IPC: 0.105116
18605828907654: Event_284: system.switch_cpus2 progress event, total committed:261764378, progress insts committed: 2121775, IPC: 0.211965
18605828907654: Event_285: system.switch_cpus3 progress event, total committed:262690445, progress insts committed: 1262997, IPC: 0.126173
18609162240987: Event_285: system.switch_cpus3 progress event, total committed:263966661, progress insts committed: 1276216, IPC: 0.127494
18609162240987: Event_284: system.switch_cpus2 progress event, total committed:262816274, progress insts committed: 1051896, IPC: 0.105084
18609162240987: Event_283: system.switch_cpus1 progress event, total committed:264104976, progress insts committed: 1381861, IPC: 0.138048
18609162240987: Event_282: system.switch_cpus0 progress event, total committed:262867407, progress insts committed: 895911, IPC: 0.0895015
18612495574320: Event_282: system.switch_cpus0 progress event, total committed:264033904, progress insts committed: 1166497, IPC: 0.116533
18612495574320: Event_283: system.switch_cpus1 progress event, total committed:265444221, progress insts committed: 1339245, IPC: 0.133791
18612495574320: Event_284: system.switch_cpus2 progress event, total committed:263821341, progress insts committed: 1005067, IPC: 0.100406
18612495574320: Event_285: system.switch_cpus3 progress event, total committed:265305216, progress insts committed: 1338555, IPC: 0.133722
18615828907653: Event_285: system.switch_cpus3 progress event, total committed:266558661, progress insts committed: 1253445, IPC: 0.125219
18615828907653: Event_284: system.switch_cpus2 progress event, total committed:265085436, progress insts committed: 1264095, IPC: 0.126283
18615828907653: Event_283: system.switch_cpus1 progress event, total committed:266629120, progress insts committed: 1184899, IPC: 0.118371
18615828907653: Event_282: system.switch_cpus0 progress event, total committed:265300684, progress insts committed: 1266780, IPC: 0.126551
18619162240986: Event_282: system.switch_cpus0 progress event, total committed:266793839, progress insts committed: 1493155, IPC: 0.149166
18619162240986: Event_283: system.switch_cpus1 progress event, total committed:267214782, progress insts committed: 585662, IPC: 0.0585076
18619162240986: Event_284: system.switch_cpus2 progress event, total committed:266745742, progress insts committed: 1660306, IPC: 0.165865
18619162240986: Event_285: system.switch_cpus3 progress event, total committed:267090856, progress insts committed: 532195, IPC: 0.0531663
18622495574319: Event_285: system.switch_cpus3 progress event, total committed:268883952, progress insts committed: 1793096, IPC: 00.17913
18622495574319: Event_284: system.switch_cpus2 progress event, total committed:267251491, progress insts committed: 505749, IPC: 0.0505243
18622495574319: Event_283: system.switch_cpus1 progress event, total committed:269051472, progress insts committed: 1836690, IPC: 0.183485
18622495574319: Event_282: system.switch_cpus0 progress event, total committed:267473110, progress insts committed: 679271, IPC: 0.0678592
18625828907652: Event_282: system.switch_cpus0 progress event, total committed:268787695, progress insts committed: 1314585, IPC: 0.131327
18625828907652: Event_283: system.switch_cpus1 progress event, total committed:270359592, progress insts committed: 1308120, IPC: 0.130681
18625828907652: Event_284: system.switch_cpus2 progress event, total committed:268573212, progress insts committed: 1321721, IPC: 00.13204
18625828907652: Event_285: system.switch_cpus3 progress event, total committed:270195882, progress insts committed: 1311930, IPC: 0.131062
18629162240985: Event_285: system.switch_cpus3 progress event, total committed:271024540, progress insts committed: 828658, IPC: 0.0827829
18629162240985: Event_284: system.switch_cpus2 progress event, total committed:270319527, progress insts committed: 1746315, IPC: 0.174457
18629162240985: Event_283: system.switch_cpus1 progress event, total committed:271063384, progress insts committed: 703792, IPC: 0.0703088
18629162240985: Event_282: system.switch_cpus0 progress event, total committed:270523420, progress insts committed: 1735725, IPC: 0.173399
18632495574318: Event_282: system.switch_cpus0 progress event, total committed:271256879, progress insts committed: 733459, IPC: 0.0732726
18632495574318: Event_283: system.switch_cpus1 progress event, total committed:272824793, progress insts committed: 1761409, IPC: 0.175965
18632495574318: Event_284: system.switch_cpus2 progress event, total committed:271212016, progress insts committed: 892489, IPC: 0.0891597
18632495574318: Event_285: system.switch_cpus3 progress event, total committed:272636253, progress insts committed: 1611713, IPC: 00.16101
18635828907651: Event_285: system.switch_cpus3 progress event, total committed:275010218, progress insts committed: 2373965, IPC: 0.237159
18635828907651: Event_284: system.switch_cpus2 progress event, total committed:273357688, progress insts committed: 2145672, IPC: 0.214353
18635828907651: Event_283: system.switch_cpus1 progress event, total committed:275233129, progress insts committed: 2408336, IPC: 0.240593
18635828907651: Event_282: system.switch_cpus0 progress event, total committed:273588011, progress insts committed: 2331132, IPC: 00.23288
18639162240984: Event_282: system.switch_cpus0 progress event, total committed:276017691, progress insts committed: 2429680, IPC: 0.242725
18639162240984: Event_283: system.switch_cpus1 progress event, total committed:277661346, progress insts committed: 2428217, IPC: 0.242579
18639162240984: Event_284: system.switch_cpus2 progress event, total committed:275758524, progress insts committed: 2400836, IPC: 0.239844
18639162240984: Event_285: system.switch_cpus3 progress event, total committed:277416523, progress insts committed: 2406305, IPC: 00.24039
18642495574317: Event_285: system.switch_cpus3 progress event, total committed:282540027, progress insts committed: 5123504, IPC: 0.511838
18642495574317: Event_284: system.switch_cpus2 progress event, total committed:279750792, progress insts committed: 3992268, IPC: 0.398828
18642495574317: Event_283: system.switch_cpus1 progress event, total committed:283007974, progress insts committed: 5346628, IPC: 0.534128
18642495574317: Event_282: system.switch_cpus0 progress event, total committed:280315125, progress insts committed: 4297434, IPC: 0.429314
18645828907650: Event_282: system.switch_cpus0 progress event, total committed:285786580, progress insts committed: 5471455, IPC: 0.546598
18645828907650: Event_283: system.switch_cpus1 progress event, total committed:288395002, progress insts committed: 5387028, IPC: 0.538164
18645828907650: Event_284: system.switch_cpus2 progress event, total committed:285246878, progress insts committed: 5496086, IPC: 0.549059
18645828907650: Event_285: system.switch_cpus3 progress event, total committed:288003566, progress insts committed: 5463539, IPC: 0.545808
18649162240983: Event_285: system.switch_cpus3 progress event, total committed:290880456, progress insts committed: 2876890, IPC: 0.287401
18649162240983: Event_284: system.switch_cpus2 progress event, total committed:289302506, progress insts committed: 4055628, IPC: 0.405157
18649162240983: Event_283: system.switch_cpus1 progress event, total committed:291090442, progress insts committed: 2695440, IPC: 0.269274
18649162240983: Event_282: system.switch_cpus0 progress event, total committed:289616154, progress insts committed: 3829574, IPC: 0.382574
18652495574316: Event_282: system.switch_cpus0 progress event, total committed:291923404, progress insts committed: 2307250, IPC: 0.230494
18652495574316: Event_283: system.switch_cpus1 progress event, total committed:293384936, progress insts committed: 2294494, IPC: 00.22922
18652495574316: Event_284: system.switch_cpus2 progress event, total committed:291609756, progress insts committed: 2307250, IPC: 0.230494
18652495574316: Event_285: system.switch_cpus3 progress event, total committed:293168177, progress insts committed: 2287721, IPC: 0.228543
18655828907649: Event_285: system.switch_cpus3 progress event, total committed:296988804, progress insts committed: 3820627, IPC: 0.381681
18655828907649: Event_284: system.switch_cpus2 progress event, total committed:293948301, progress insts committed: 2338545, IPC: 0.233621
18655828907649: Event_283: system.switch_cpus1 progress event, total committed:297377237, progress insts committed: 3992301, IPC: 0.398831
18655828907649: Event_282: system.switch_cpus0 progress event, total committed:294286919, progress insts committed: 2363515, IPC: 0.236115
18659162240982: Event_282: system.switch_cpus0 progress event, total committed:299616841, progress insts committed: 5329922, IPC: 0.532459
18659162240982: Event_283: system.switch_cpus1 progress event, total committed:302036777, progress insts committed: 4659540, IPC: 0.465488
18659162240982: Event_284: system.switch_cpus2 progress event, total committed:299015478, progress insts committed: 5067177, IPC: 0.506211
18659162240982: Event_285: system.switch_cpus3 progress event, total committed:301664917, progress insts committed: 4676113, IPC: 0.467144
18662495574315: Event_285: system.switch_cpus3 progress event, total committed:305482094, progress insts committed: 3817177, IPC: 0.381336
18662495574315: Event_284: system.switch_cpus2 progress event, total committed:303753833, progress insts committed: 4738355, IPC: 0.473362
18662495574315: Event_283: system.switch_cpus1 progress event, total committed:305703744, progress insts committed: 3666967, IPC: 00.36633
18662495574315: Event_282: system.switch_cpus0 progress event, total committed:304154491, progress insts committed: 4537650, IPC: 0.453311
18665828907648: Event_282: system.switch_cpus0 progress event, total committed:306550727, progress insts committed: 2396236, IPC: 0.239384
18665828907648: Event_283: system.switch_cpus1 progress event, total committed:308137494, progress insts committed: 2433750, IPC: 0.243132
18665828907648: Event_284: system.switch_cpus2 progress event, total committed:306171388, progress insts committed: 2417555, IPC: 0.241514
18665828907648: Event_285: system.switch_cpus3 progress event, total committed:307959129, progress insts committed: 2477035, IPC: 0.247456
18669162240981: Event_285: system.switch_cpus3 progress event, total committed:310403989, progress insts committed: 2444860, IPC: 0.244242
18669162240981: Event_284: system.switch_cpus2 progress event, total committed:308591959, progress insts committed: 2420571, IPC: 0.241815
18669162240981: Event_283: system.switch_cpus1 progress event, total committed:311689368, progress insts committed: 3551874, IPC: 0.354832
18669162240981: Event_282: system.switch_cpus0 progress event, total committed:308996966, progress insts committed: 2446239, IPC: 0.244379
18672495574314: Event_282: system.switch_cpus0 progress event, total committed:313923523, progress insts committed: 4926557, IPC: 0.492163
18672495574314: Event_283: system.switch_cpus1 progress event, total committed:316489818, progress insts committed: 4800450, IPC: 0.479565
18672495574314: Event_284: system.switch_cpus2 progress event, total committed:313249095, progress insts committed: 4657136, IPC: 0.465248
18672495574314: Event_285: system.switch_cpus3 progress event, total committed:316236864, progress insts committed: 5832875, IPC: 0.582704
18675828907647: Event_285: system.switch_cpus3 progress event, total committed:320667889, progress insts committed: 4431025, IPC: 0.442659
18675828907647: Event_284: system.switch_cpus2 progress event, total committed:318821613, progress insts committed: 5572518, IPC: 0.556695
18675828907647: Event_283: system.switch_cpus1 progress event, total committed:320677177, progress insts committed: 4187359, IPC: 0.418317
18675828907647: Event_282: system.switch_cpus0 progress event, total committed:319497366, progress insts committed: 5573843, IPC: 0.556827
18679162240980: Event_282: system.switch_cpus0 progress event, total committed:320760875, progress insts committed: 1263509, IPC: 0.126225
18679162240980: Event_283: system.switch_cpus1 progress event, total committed:320856337, progress insts committed: 179160, IPC: 0.0178981
18679162240980: Event_284: system.switch_cpus2 progress event, total committed:320735545, progress insts committed: 1913932, IPC: 0.191202
18679162240980: Event_285: system.switch_cpus3 progress event, total committed:320846140, progress insts committed: 178251, IPC: 0.0178073
18682495574313: Event_285: system.switch_cpus3 progress event, total committed:321011364, progress insts committed: 165224, IPC: 0.0165059
18682495574313: Event_284: system.switch_cpus2 progress event, total committed:320888530, progress insts committed: 152985, IPC: 0.0152832
18682495574313: Event_283: system.switch_cpus1 progress event, total committed:321021975, progress insts committed: 165638, IPC: 0.0165472
18682495574313: Event_282: system.switch_cpus0 progress event, total committed:320913616, progress insts committed: 152741, IPC: 0.0152588
18685828907646: Event_282: system.switch_cpus0 progress event, total committed:321069208, progress insts committed: 155592, IPC: 0.0155436
18685828907646: Event_283: system.switch_cpus1 progress event, total committed:321437704, progress insts committed: 415729, IPC: 0.0415313
18685828907646: Event_284: system.switch_cpus2 progress event, total committed:321045498, progress insts committed: 156968, IPC: 0.0156811
18685828907646: Event_285: system.switch_cpus3 progress event, total committed:321253969, progress insts committed: 242605, IPC: 0.0242362
18689162240979: Event_285: system.switch_cpus3 progress event, total committed:323103696, progress insts committed: 1849727, IPC: 0.184788
18689162240979: Event_284: system.switch_cpus2 progress event, total committed:321156765, progress insts committed: 111267, IPC: 0.0111156
18689162240979: Event_283: system.switch_cpus1 progress event, total committed:323140657, progress insts committed: 1702953, IPC: 0.170125
18689162240979: Event_282: system.switch_cpus0 progress event, total committed:321578477, progress insts committed: 509269, IPC: 0.050876
18692495574312: Event_282: system.switch_cpus0 progress event, total committed:323102888, progress insts committed: 1524411, IPC: 0.152289
18692495574312: Event_283: system.switch_cpus1 progress event, total committed:324132081, progress insts committed: 991424, IPC: 0.0990433
18692495574312: Event_284: system.switch_cpus2 progress event, total committed:322679209, progress insts committed: 1522444, IPC: 0.152092
18692495574312: Event_285: system.switch_cpus3 progress event, total committed:324005601, progress insts committed: 901905, IPC: 0.0901003
18695828907645: Event_285: system.switch_cpus3 progress event, total committed:325354011, progress insts committed: 1348410, IPC: 0.134706
18695828907645: Event_284: system.switch_cpus2 progress event, total committed:323904501, progress insts committed: 1225292, IPC: 0.122407
18695828907645: Event_283: system.switch_cpus1 progress event, total committed:325370442, progress insts committed: 1238361, IPC: 0.123712
18695828907645: Event_282: system.switch_cpus0 progress event, total committed:324333653, progress insts committed: 1230765, IPC: 0.122953
18699162240978: Event_282: system.switch_cpus0 progress event, total committed:325408298, progress insts committed: 1074645, IPC: 0.107357
18699162240978: Event_283: system.switch_cpus1 progress event, total committed:327176700, progress insts committed: 1806258, IPC: 0.180445
18699162240978: Event_284: system.switch_cpus2 progress event, total committed:325289595, progress insts committed: 1385094, IPC: 0.138371
18699162240978: Event_285: system.switch_cpus3 progress event, total committed:327104759, progress insts committed: 1750748, IPC: 000.1749
18702495574311: Event_285: system.switch_cpus3 progress event, total committed:328371563, progress insts committed: 1266804, IPC: 0.126554
18702495574311: Event_284: system.switch_cpus2 progress event, total committed:327069240, progress insts committed: 1779645, IPC: 0.177787
18702495574311: Event_283: system.switch_cpus1 progress event, total committed:328429368, progress insts committed: 1252668, IPC: 0.125142
18702495574311: Event_282: system.switch_cpus0 progress event, total committed:327495166, progress insts committed: 2086868, IPC: 0.208478
18705828907644: Event_282: system.switch_cpus0 progress event, total committed:329332726, progress insts committed: 1837560, IPC: 0.183572
18705828907644: Event_283: system.switch_cpus1 progress event, total committed:330819833, progress insts committed: 2390465, IPC: 0.238807
18705828907644: Event_284: system.switch_cpus2 progress event, total committed:328765033, progress insts committed: 1695793, IPC: 00.16941
18705828907644: Event_285: system.switch_cpus3 progress event, total committed:330771209, progress insts committed: 2399646, IPC: 0.239725
18709162240977: Event_285: system.switch_cpus3 progress event, total committed:336265895, progress insts committed: 5494686, IPC: 0.548919
18709162240977: Event_284: system.switch_cpus2 progress event, total committed:332875578, progress insts committed: 4110545, IPC: 0.410643
18709162240977: Event_283: system.switch_cpus1 progress event, total committed:336314801, progress insts committed: 5494968, IPC: 0.548947
18709162240977: Event_282: system.switch_cpus0 progress event, total committed:333821695, progress insts committed: 4488969, IPC: 0.448448
18712495574310: Event_282: system.switch_cpus0 progress event, total committed:337658927, progress insts committed: 3837232, IPC: 0.383339
18712495574310: Event_283: system.switch_cpus1 progress event, total committed:339015299, progress insts committed: 2700498, IPC: 00.26978
18712495574310: Event_284: system.switch_cpus2 progress event, total committed:337117938, progress insts committed: 4242360, IPC: 0.423812
18712495574310: Event_285: system.switch_cpus3 progress event, total committed:339026464, progress insts committed: 2760569, IPC: 0.275781
18715828907643: Event_285: system.switch_cpus3 progress event, total committed:343850604, progress insts committed: 4824140, IPC: 0.481932
18715828907643: Event_284: system.switch_cpus2 progress event, total committed:339613314, progress insts committed: 2495376, IPC: 0.249288
18715828907643: Event_283: system.switch_cpus1 progress event, total committed:343823596, progress insts committed: 4808297, IPC: 0.480349
18715828907643: Event_282: system.switch_cpus0 progress event, total committed:341433042, progress insts committed: 3774115, IPC: 0.377034
18719162240976: Event_282: system.switch_cpus0 progress event, total committed:345328729, progress insts committed: 3895687, IPC: 0.389179
18719162240976: Event_283: system.switch_cpus1 progress event, total committed:346800711, progress insts committed: 2977115, IPC: 0.297414
18719162240976: Event_284: system.switch_cpus2 progress event, total committed:344742556, progress insts committed: 5129242, IPC: 0.512411
18719162240976: Event_285: system.switch_cpus3 progress event, total committed:346841081, progress insts committed: 2990477, IPC: 0.298749
18722495574309: Event_285: system.switch_cpus3 progress event, total committed:351771857, progress insts committed: 4930776, IPC: 0.492585
18722495574309: Event_284: system.switch_cpus2 progress event, total committed:347291585, progress insts committed: 2549029, IPC: 0.254648
18722495574309: Event_283: system.switch_cpus1 progress event, total committed:351714927, progress insts committed: 4914216, IPC: 00.49093
18722495574309: Event_282: system.switch_cpus0 progress event, total committed:349225004, progress insts committed: 3896275, IPC: 0.389238
18725828907642: Event_282: system.switch_cpus0 progress event, total committed:352914502, progress insts committed: 3689498, IPC: 0.368581
18725828907642: Event_283: system.switch_cpus1 progress event, total committed:353012320, progress insts committed: 1297393, IPC: 00.12961
18725828907642: Event_284: system.switch_cpus2 progress event, total committed:352867336, progress insts committed: 5575751, IPC: 0.557018
18725828907642: Event_285: system.switch_cpus3 progress event, total committed:353013766, progress insts committed: 1241909, IPC: 0.124067
18729162240975: Event_285: system.switch_cpus3 progress event, total committed:353882349, progress insts committed: 868583, IPC: 0.0867714
18729162240975: Event_284: system.switch_cpus2 progress event, total committed:353013979, progress insts committed: 146643, IPC: 0.0146496
18729162240975: Event_283: system.switch_cpus1 progress event, total committed:353857899, progress insts committed: 845579, IPC: 0.0844733
18729162240975: Event_282: system.switch_cpus0 progress event, total committed:353058197, progress insts committed: 143695, IPC: 0.0143551
18732495574308: Event_282: system.switch_cpus0 progress event, total committed:354157132, progress insts committed: 1098935, IPC: 0.109784
18732495574308: Event_283: system.switch_cpus1 progress event, total committed:355388523, progress insts committed: 1530624, IPC: 0.152909
18732495574308: Event_284: system.switch_cpus2 progress event, total committed:353309683, progress insts committed: 295704, IPC: 0.0295408
18732495574308: Event_285: system.switch_cpus3 progress event, total committed:355391526, progress insts committed: 1509177, IPC: 0.150767
18735828907641: Event_285: system.switch_cpus3 progress event, total committed:356918899, progress insts committed: 1527373, IPC: 0.152585
18735828907641: Event_284: system.switch_cpus2 progress event, total committed:354971640, progress insts committed: 1661957, IPC: 00.16603
18735828907641: Event_283: system.switch_cpus1 progress event, total committed:356920274, progress insts committed: 1531751, IPC: 0.153022
18735828907641: Event_282: system.switch_cpus0 progress event, total committed:355557381, progress insts committed: 1400249, IPC: 0.139885
18739162240974: Event_282: system.switch_cpus0 progress event, total committed:357543077, progress insts committed: 1985696, IPC: 0.198371
18739162240974: Event_283: system.switch_cpus1 progress event, total committed:360746430, progress insts committed: 3826156, IPC: 0.382233
18739162240974: Event_284: system.switch_cpus2 progress event, total committed:356716770, progress insts committed: 1745130, IPC: 0.174338
18739162240974: Event_285: system.switch_cpus3 progress event, total committed:360750844, progress insts committed: 3831945, IPC: 0.382811
18742495574307: Event_285: system.switch_cpus3 progress event, total committed:365199683, progress insts committed: 4448839, IPC: 0.444439
18742495574307: Event_284: system.switch_cpus2 progress event, total committed:361182951, progress insts committed: 4466181, IPC: 0.446171
18742495574307: Event_283: system.switch_cpus1 progress event, total committed:365179424, progress insts committed: 4432994, IPC: 0.442856
18742495574307: Event_282: system.switch_cpus0 progress event, total committed:362041814, progress insts committed: 4498737, IPC: 0.449424
18745828907640: Event_282: system.switch_cpus0 progress event, total committed:366330961, progress insts committed: 4289147, IPC: 0.428486
18745828907640: Event_283: system.switch_cpus1 progress event, total committed:369613338, progress insts committed: 4433914, IPC: 0.442948
18745828907640: Event_284: system.switch_cpus2 progress event, total committed:365490083, progress insts committed: 4307132, IPC: 0.430282
18745828907640: Event_285: system.switch_cpus3 progress event, total committed:369611557, progress insts committed: 4411874, IPC: 0.440746
18749162240973: Event_285: system.switch_cpus3 progress event, total committed:370253597, progress insts committed: 642040, IPC: 0.0641398
18749162240973: Event_284: system.switch_cpus2 progress event, total committed:369680901, progress insts committed: 4190818, IPC: 0.418663
18749162240973: Event_283: system.switch_cpus1 progress event, total committed:370262312, progress insts committed: 648974, IPC: 0.0648325
18749162240973: Event_282: system.switch_cpus0 progress event, total committed:369732184, progress insts committed: 3401223, IPC: 0.339782
18752495574306: Event_282: system.switch_cpus0 progress event, total committed:370664661, progress insts committed: 932477, IPC: 0.0931545
18752495574306: Event_283: system.switch_cpus1 progress event, total committed:372278238, progress insts committed: 2015926, IPC: 0.201391
18752495574306: Event_284: system.switch_cpus2 progress event, total committed:369890836, progress insts committed: 209935, IPC: 0.0209725
18752495574306: Event_285: system.switch_cpus3 progress event, total committed:372267957, progress insts committed: 2014360, IPC: 0.201235
18755828907639: Event_285: system.switch_cpus3 progress event, total committed:378348851, progress insts committed: 6080894, IPC: 0.607481
18755828907639: Event_284: system.switch_cpus2 progress event, total committed:372022107, progress insts committed: 2131271, IPC: 0.212914
18755828907639: Event_283: system.switch_cpus1 progress event, total committed:378354197, progress insts committed: 6075959, IPC: 0.606988
18755828907639: Event_282: system.switch_cpus0 progress event, total committed:374240877, progress insts committed: 3576216, IPC: 0.357264
18759162240972: Event_282: system.switch_cpus0 progress event, total committed:381928078, progress insts committed: 7687201, IPC: 0.767951
18759162240972: Event_283: system.switch_cpus1 progress event, total committed:397572342, progress insts committed: 19218145, IPC: 01.91989
18759162240972: Event_284: system.switch_cpus2 progress event, total committed:378797891, progress insts committed: 6775784, IPC: 0.676901
18759162240972: Event_285: system.switch_cpus3 progress event, total committed:397110239, progress insts committed: 18761388, IPC: 01.87426
18762495574305: Event_285: system.switch_cpus3 progress event, total committed:422708061, progress insts committed: 25597822, IPC: 02.55722
18762495574305: Event_284: system.switch_cpus2 progress event, total committed:398738992, progress insts committed: 19941101, IPC: 01.99212
18762495574305: Event_283: system.switch_cpus1 progress event, total committed:422150713, progress insts committed: 24578371, IPC: 02.45538
18762495574305: Event_282: system.switch_cpus0 progress event, total committed:406743248, progress insts committed: 24815170, IPC: 02.47904
18765828907638: Event_282: system.switch_cpus0 progress event, total committed:428574850, progress insts committed: 21831602, IPC: 02.18098
18765828907638: Event_283: system.switch_cpus1 progress event, total committed:443450762, progress insts committed: 21300049, IPC: 02.12787
18765828907638: Event_284: system.switch_cpus2 progress event, total committed:422207184, progress insts committed: 23468192, IPC: 02.34447
18765828907638: Event_285: system.switch_cpus3 progress event, total committed:444073651, progress insts committed: 21365590, IPC: 02.13442
Exiting @ tick 18766601677269 because a thread reached the max instruction count
