
---------- Begin Simulation Statistics ----------
final_tick                               18766601677269                       # Number of ticks from beginning of simulation (restored from checkpoints and never reset)
host_inst_rate                                  80812                       # Simulator instruction rate (inst/s)
host_mem_usage                               17865364                       # Number of bytes of host memory used
host_op_rate                                   144405                       # Simulator op (including micro ops) rate (op/s)
host_seconds                                 12164.92                       # Real time elapsed on the host
host_tick_rate                               45001471                       # Simulator tick rate (ticks/s)
sim_freq                                 1000000000000                       # Frequency of simulated ticks
sim_insts                                   983069739                       # Number of instructions simulated
sim_ops                                    1756674775                       # Number of ops (including micro ops) simulated
sim_seconds                                  0.547439                       # Number of seconds simulated
sim_ticks                                547439436243                       # Number of ticks simulated
system.cpu0.Branches                                3                       # Number of branches fetched
system.cpu0.committedInsts                         16                       # Number of instructions committed
system.cpu0.committedOps                           27                       # Number of ops (including micro ops) committed
system.cpu0.idle_fraction                           0                       # Percentage of idle cycles
system.cpu0.l2bus.snoop_filter.hit_multi_requests           13                       # Number of requests hitting in the snoop filter with multiple (>1) holders of the requested data.
system.cpu0.l2bus.snoop_filter.hit_multi_snoops            3                       # Number of snoops hitting in the snoop filter with multiple (>1) holders of the requested data.
system.cpu0.l2bus.snoop_filter.hit_single_requests     12115051                       # Number of requests hitting in the snoop filter with a single holder of the requested data.
system.cpu0.l2bus.snoop_filter.hit_single_snoops      6994211                       # Number of snoops hitting in the snoop filter with a single holder of the requested data.
system.cpu0.l2bus.snoop_filter.tot_requests     24222509                       # Total number of requests made to the snoop filter.
system.cpu0.l2bus.snoop_filter.tot_snoops      6994214                       # Total number of snoops made to the snoop filter.
system.cpu0.mmucache.mmubus.snoop_filter.hit_multi_requests            0                       # Number of requests hitting in the snoop filter with multiple (>1) holders of the requested data.
system.cpu0.mmucache.mmubus.snoop_filter.hit_multi_snoops            0                       # Number of snoops hitting in the snoop filter with multiple (>1) holders of the requested data.
system.cpu0.mmucache.mmubus.snoop_filter.hit_single_requests            0                       # Number of requests hitting in the snoop filter with a single holder of the requested data.
system.cpu0.mmucache.mmubus.snoop_filter.hit_single_snoops            0                       # Number of snoops hitting in the snoop filter with a single holder of the requested data.
system.cpu0.mmucache.mmubus.snoop_filter.tot_requests            0                       # Total number of requests made to the snoop filter.
system.cpu0.mmucache.mmubus.snoop_filter.tot_snoops            0                       # Total number of snoops made to the snoop filter.
system.cpu0.not_idle_fraction                       1                       # Percentage of non-idle cycles
system.cpu0.numCycles                              32                       # number of cpu cycles simulated
system.cpu0.numWorkItemsCompleted                   0                       # number of work items this cpu completed
system.cpu0.numWorkItemsStarted                     0                       # number of work items this cpu started
system.cpu0.num_busy_cycles                        32                       # Number of busy cycles
system.cpu0.num_cc_register_reads                  41                       # number of times the CC registers were read
system.cpu0.num_cc_register_writes                 10                       # number of times the CC registers were written
system.cpu0.num_conditional_control_insts            3                       # number of instructions that are conditional controls
system.cpu0.num_fp_alu_accesses                     9                       # Number of float alu accesses
system.cpu0.num_fp_insts                            9                       # number of float instructions
system.cpu0.num_fp_register_reads                  16                       # number of times the floating registers were read
system.cpu0.num_fp_register_writes                  7                       # number of times the floating registers were written
system.cpu0.num_func_calls                          0                       # number of times a function call or return occured
system.cpu0.num_idle_cycles                         0                       # Number of idle cycles
system.cpu0.num_int_alu_accesses                   19                       # Number of integer alu accesses
system.cpu0.num_int_insts                          19                       # number of integer instructions
system.cpu0.num_int_register_reads                 34                       # number of times the integer registers were read
system.cpu0.num_int_register_writes                15                       # number of times the integer registers were written
system.cpu0.num_load_insts                          2                       # Number of load instructions
system.cpu0.num_mem_refs                            2                       # number of memory refs
system.cpu0.num_store_insts                         0                       # Number of store instructions
system.cpu0.num_vec_alu_accesses                    0                       # Number of vector alu accesses
system.cpu0.num_vec_insts                           0                       # number of vector instructions
system.cpu0.num_vec_register_reads                  0                       # number of times the vector registers were read
system.cpu0.num_vec_register_writes                 0                       # number of times the vector registers were written
system.cpu0.op_class::No_OpClass                    0      0.00%      0.00% # Class of executed instruction
system.cpu0.op_class::IntAlu                       17     62.96%     62.96% # Class of executed instruction
system.cpu0.op_class::IntMult                       0      0.00%     62.96% # Class of executed instruction
system.cpu0.op_class::IntDiv                        0      0.00%     62.96% # Class of executed instruction
system.cpu0.op_class::FloatAdd                      2      7.41%     70.37% # Class of executed instruction
system.cpu0.op_class::FloatCmp                      0      0.00%     70.37% # Class of executed instruction
system.cpu0.op_class::FloatCvt                      0      0.00%     70.37% # Class of executed instruction
system.cpu0.op_class::FloatMult                     0      0.00%     70.37% # Class of executed instruction
system.cpu0.op_class::FloatMultAcc                  0      0.00%     70.37% # Class of executed instruction
system.cpu0.op_class::FloatDiv                      0      0.00%     70.37% # Class of executed instruction
system.cpu0.op_class::FloatMisc                     0      0.00%     70.37% # Class of executed instruction
system.cpu0.op_class::FloatSqrt                     0      0.00%     70.37% # Class of executed instruction
system.cpu0.op_class::SimdAdd                       0      0.00%     70.37% # Class of executed instruction
system.cpu0.op_class::SimdAddAcc                    0      0.00%     70.37% # Class of executed instruction
system.cpu0.op_class::SimdAlu                       0      0.00%     70.37% # Class of executed instruction
system.cpu0.op_class::SimdCmp                       0      0.00%     70.37% # Class of executed instruction
system.cpu0.op_class::SimdCvt                       0      0.00%     70.37% # Class of executed instruction
system.cpu0.op_class::SimdMisc                      0      0.00%     70.37% # Class of executed instruction
system.cpu0.op_class::SimdMult                      0      0.00%     70.37% # Class of executed instruction
system.cpu0.op_class::SimdMultAcc                   0      0.00%     70.37% # Class of executed instruction
system.cpu0.op_class::SimdShift                     0      0.00%     70.37% # Class of executed instruction
system.cpu0.op_class::SimdShiftAcc                  0      0.00%     70.37% # Class of executed instruction
system.cpu0.op_class::SimdDiv                       0      0.00%     70.37% # Class of executed instruction
system.cpu0.op_class::SimdSqrt                      0      0.00%     70.37% # Class of executed instruction
system.cpu0.op_class::SimdFloatAdd                  2      7.41%     77.78% # Class of executed instruction
system.cpu0.op_class::SimdFloatAlu                  0      0.00%     77.78% # Class of executed instruction
system.cpu0.op_class::SimdFloatCmp                  1      3.70%     81.48% # Class of executed instruction
system.cpu0.op_class::SimdFloatCvt                  2      7.41%     88.89% # Class of executed instruction
system.cpu0.op_class::SimdFloatDiv                  0      0.00%     88.89% # Class of executed instruction
system.cpu0.op_class::SimdFloatMisc                 0      0.00%     88.89% # Class of executed instruction
system.cpu0.op_class::SimdFloatMult                 1      3.70%     92.59% # Class of executed instruction
system.cpu0.op_class::SimdFloatMultAcc              0      0.00%     92.59% # Class of executed instruction
system.cpu0.op_class::SimdFloatSqrt                 0      0.00%     92.59% # Class of executed instruction
system.cpu0.op_class::SimdReduceAdd                 0      0.00%     92.59% # Class of executed instruction
system.cpu0.op_class::SimdReduceAlu                 0      0.00%     92.59% # Class of executed instruction
system.cpu0.op_class::SimdReduceCmp                 0      0.00%     92.59% # Class of executed instruction
system.cpu0.op_class::SimdFloatReduceAdd            0      0.00%     92.59% # Class of executed instruction
system.cpu0.op_class::SimdFloatReduceCmp            0      0.00%     92.59% # Class of executed instruction
system.cpu0.op_class::SimdAes                       0      0.00%     92.59% # Class of executed instruction
system.cpu0.op_class::SimdAesMix                    0      0.00%     92.59% # Class of executed instruction
system.cpu0.op_class::SimdSha1Hash                  0      0.00%     92.59% # Class of executed instruction
system.cpu0.op_class::SimdSha1Hash2                 0      0.00%     92.59% # Class of executed instruction
system.cpu0.op_class::SimdSha256Hash                0      0.00%     92.59% # Class of executed instruction
system.cpu0.op_class::SimdSha256Hash2               0      0.00%     92.59% # Class of executed instruction
system.cpu0.op_class::SimdShaSigma2                 0      0.00%     92.59% # Class of executed instruction
system.cpu0.op_class::SimdShaSigma3                 0      0.00%     92.59% # Class of executed instruction
system.cpu0.op_class::SimdPredAlu                   0      0.00%     92.59% # Class of executed instruction
system.cpu0.op_class::MemRead                       1      3.70%     96.30% # Class of executed instruction
system.cpu0.op_class::MemWrite                      0      0.00%     96.30% # Class of executed instruction
system.cpu0.op_class::FloatMemRead                  1      3.70%    100.00% # Class of executed instruction
system.cpu0.op_class::FloatMemWrite                 0      0.00%    100.00% # Class of executed instruction
system.cpu0.op_class::IprAccess                     0      0.00%    100.00% # Class of executed instruction
system.cpu0.op_class::InstPrefetch                  0      0.00%    100.00% # Class of executed instruction
system.cpu0.op_class::total                        27                       # Class of executed instruction
system.cpu0.workload.numSyscalls                    0                       # Number of system calls
system.cpu1.Branches                                1                       # Number of branches fetched
system.cpu1.committedInsts                         16                       # Number of instructions committed
system.cpu1.committedOps                           23                       # Number of ops (including micro ops) committed
system.cpu1.idle_fraction                           0                       # Percentage of idle cycles
system.cpu1.l2bus.snoop_filter.hit_multi_requests           10                       # Number of requests hitting in the snoop filter with multiple (>1) holders of the requested data.
system.cpu1.l2bus.snoop_filter.hit_multi_snoops            0                       # Number of snoops hitting in the snoop filter with multiple (>1) holders of the requested data.
system.cpu1.l2bus.snoop_filter.hit_single_requests     12222459                       # Number of requests hitting in the snoop filter with a single holder of the requested data.
system.cpu1.l2bus.snoop_filter.hit_single_snoops         3860                       # Number of snoops hitting in the snoop filter with a single holder of the requested data.
system.cpu1.l2bus.snoop_filter.tot_requests     24442604                       # Total number of requests made to the snoop filter.
system.cpu1.l2bus.snoop_filter.tot_snoops         3860                       # Total number of snoops made to the snoop filter.
system.cpu1.mmucache.mmubus.snoop_filter.hit_multi_requests            0                       # Number of requests hitting in the snoop filter with multiple (>1) holders of the requested data.
system.cpu1.mmucache.mmubus.snoop_filter.hit_multi_snoops            0                       # Number of snoops hitting in the snoop filter with multiple (>1) holders of the requested data.
system.cpu1.mmucache.mmubus.snoop_filter.hit_single_requests            0                       # Number of requests hitting in the snoop filter with a single holder of the requested data.
system.cpu1.mmucache.mmubus.snoop_filter.hit_single_snoops            0                       # Number of snoops hitting in the snoop filter with a single holder of the requested data.
system.cpu1.mmucache.mmubus.snoop_filter.tot_requests            0                       # Total number of requests made to the snoop filter.
system.cpu1.mmucache.mmubus.snoop_filter.tot_snoops            0                       # Total number of snoops made to the snoop filter.
system.cpu1.not_idle_fraction                       1                       # Percentage of non-idle cycles
system.cpu1.numCycles                              31                       # number of cpu cycles simulated
system.cpu1.numWorkItemsCompleted                   0                       # number of work items this cpu completed
system.cpu1.numWorkItemsStarted                     0                       # number of work items this cpu started
system.cpu1.num_busy_cycles                        31                       # Number of busy cycles
system.cpu1.num_cc_register_reads                   7                       # number of times the CC registers were read
system.cpu1.num_cc_register_writes                  2                       # number of times the CC registers were written
system.cpu1.num_conditional_control_insts            1                       # number of instructions that are conditional controls
system.cpu1.num_fp_alu_accesses                    20                       # Number of float alu accesses
system.cpu1.num_fp_insts                           20                       # number of float instructions
system.cpu1.num_fp_register_reads                  43                       # number of times the floating registers were read
system.cpu1.num_fp_register_writes                 19                       # number of times the floating registers were written
system.cpu1.num_func_calls                          0                       # number of times a function call or return occured
system.cpu1.num_idle_cycles                         0                       # Number of idle cycles
system.cpu1.num_int_alu_accesses                    5                       # Number of integer alu accesses
system.cpu1.num_int_insts                           5                       # number of integer instructions
system.cpu1.num_int_register_reads                 10                       # number of times the integer registers were read
system.cpu1.num_int_register_writes                 2                       # number of times the integer registers were written
system.cpu1.num_load_insts                          2                       # Number of load instructions
system.cpu1.num_mem_refs                            2                       # number of memory refs
system.cpu1.num_store_insts                         0                       # Number of store instructions
system.cpu1.num_vec_alu_accesses                    0                       # Number of vector alu accesses
system.cpu1.num_vec_insts                           0                       # number of vector instructions
system.cpu1.num_vec_register_reads                  0                       # number of times the vector registers were read
system.cpu1.num_vec_register_writes                 0                       # number of times the vector registers were written
system.cpu1.op_class::No_OpClass                    0      0.00%      0.00% # Class of executed instruction
system.cpu1.op_class::IntAlu                        7     30.43%     30.43% # Class of executed instruction
system.cpu1.op_class::IntMult                       0      0.00%     30.43% # Class of executed instruction
system.cpu1.op_class::IntDiv                        0      0.00%     30.43% # Class of executed instruction
system.cpu1.op_class::FloatAdd                      2      8.70%     39.13% # Class of executed instruction
system.cpu1.op_class::FloatCmp                      0      0.00%     39.13% # Class of executed instruction
system.cpu1.op_class::FloatCvt                      0      0.00%     39.13% # Class of executed instruction
system.cpu1.op_class::FloatMult                     0      0.00%     39.13% # Class of executed instruction
system.cpu1.op_class::FloatMultAcc                  0      0.00%     39.13% # Class of executed instruction
system.cpu1.op_class::FloatDiv                      0      0.00%     39.13% # Class of executed instruction
system.cpu1.op_class::FloatMisc                     0      0.00%     39.13% # Class of executed instruction
system.cpu1.op_class::FloatSqrt                     0      0.00%     39.13% # Class of executed instruction
system.cpu1.op_class::SimdAdd                       0      0.00%     39.13% # Class of executed instruction
system.cpu1.op_class::SimdAddAcc                    0      0.00%     39.13% # Class of executed instruction
system.cpu1.op_class::SimdAlu                       0      0.00%     39.13% # Class of executed instruction
system.cpu1.op_class::SimdCmp                       0      0.00%     39.13% # Class of executed instruction
system.cpu1.op_class::SimdCvt                       0      0.00%     39.13% # Class of executed instruction
system.cpu1.op_class::SimdMisc                      0      0.00%     39.13% # Class of executed instruction
system.cpu1.op_class::SimdMult                      0      0.00%     39.13% # Class of executed instruction
system.cpu1.op_class::SimdMultAcc                   0      0.00%     39.13% # Class of executed instruction
system.cpu1.op_class::SimdShift                     0      0.00%     39.13% # Class of executed instruction
system.cpu1.op_class::SimdShiftAcc                  0      0.00%     39.13% # Class of executed instruction
system.cpu1.op_class::SimdDiv                       0      0.00%     39.13% # Class of executed instruction
system.cpu1.op_class::SimdSqrt                      0      0.00%     39.13% # Class of executed instruction
system.cpu1.op_class::SimdFloatAdd                  5     21.74%     60.87% # Class of executed instruction
system.cpu1.op_class::SimdFloatAlu                  0      0.00%     60.87% # Class of executed instruction
system.cpu1.op_class::SimdFloatCmp                  1      4.35%     65.22% # Class of executed instruction
system.cpu1.op_class::SimdFloatCvt                  1      4.35%     69.57% # Class of executed instruction
system.cpu1.op_class::SimdFloatDiv                  0      0.00%     69.57% # Class of executed instruction
system.cpu1.op_class::SimdFloatMisc                 0      0.00%     69.57% # Class of executed instruction
system.cpu1.op_class::SimdFloatMult                 5     21.74%     91.30% # Class of executed instruction
system.cpu1.op_class::SimdFloatMultAcc              0      0.00%     91.30% # Class of executed instruction
system.cpu1.op_class::SimdFloatSqrt                 0      0.00%     91.30% # Class of executed instruction
system.cpu1.op_class::SimdReduceAdd                 0      0.00%     91.30% # Class of executed instruction
system.cpu1.op_class::SimdReduceAlu                 0      0.00%     91.30% # Class of executed instruction
system.cpu1.op_class::SimdReduceCmp                 0      0.00%     91.30% # Class of executed instruction
system.cpu1.op_class::SimdFloatReduceAdd            0      0.00%     91.30% # Class of executed instruction
system.cpu1.op_class::SimdFloatReduceCmp            0      0.00%     91.30% # Class of executed instruction
system.cpu1.op_class::SimdAes                       0      0.00%     91.30% # Class of executed instruction
system.cpu1.op_class::SimdAesMix                    0      0.00%     91.30% # Class of executed instruction
system.cpu1.op_class::SimdSha1Hash                  0      0.00%     91.30% # Class of executed instruction
system.cpu1.op_class::SimdSha1Hash2                 0      0.00%     91.30% # Class of executed instruction
system.cpu1.op_class::SimdSha256Hash                0      0.00%     91.30% # Class of executed instruction
system.cpu1.op_class::SimdSha256Hash2               0      0.00%     91.30% # Class of executed instruction
system.cpu1.op_class::SimdShaSigma2                 0      0.00%     91.30% # Class of executed instruction
system.cpu1.op_class::SimdShaSigma3                 0      0.00%     91.30% # Class of executed instruction
system.cpu1.op_class::SimdPredAlu                   0      0.00%     91.30% # Class of executed instruction
system.cpu1.op_class::MemRead                       0      0.00%     91.30% # Class of executed instruction
system.cpu1.op_class::MemWrite                      0      0.00%     91.30% # Class of executed instruction
system.cpu1.op_class::FloatMemRead                  2      8.70%    100.00% # Class of executed instruction
system.cpu1.op_class::FloatMemWrite                 0      0.00%    100.00% # Class of executed instruction
system.cpu1.op_class::IprAccess                     0      0.00%    100.00% # Class of executed instruction
system.cpu1.op_class::InstPrefetch                  0      0.00%    100.00% # Class of executed instruction
system.cpu1.op_class::total                        23                       # Class of executed instruction
system.cpu1.workload.numSyscalls                    0                       # Number of system calls
system.cpu2.Branches                                1                       # Number of branches fetched
system.cpu2.committedInsts                         16                       # Number of instructions committed
system.cpu2.committedOps                           23                       # Number of ops (including micro ops) committed
system.cpu2.idle_fraction                           0                       # Percentage of idle cycles
system.cpu2.l2bus.snoop_filter.hit_multi_requests           12                       # Number of requests hitting in the snoop filter with multiple (>1) holders of the requested data.
system.cpu2.l2bus.snoop_filter.hit_multi_snoops            2                       # Number of snoops hitting in the snoop filter with multiple (>1) holders of the requested data.
system.cpu2.l2bus.snoop_filter.hit_single_requests     12085484                       # Number of requests hitting in the snoop filter with a single holder of the requested data.
system.cpu2.l2bus.snoop_filter.hit_single_snoops      6994821                       # Number of snoops hitting in the snoop filter with a single holder of the requested data.
system.cpu2.l2bus.snoop_filter.tot_requests     24164691                       # Total number of requests made to the snoop filter.
system.cpu2.l2bus.snoop_filter.tot_snoops      6994823                       # Total number of snoops made to the snoop filter.
system.cpu2.mmucache.mmubus.snoop_filter.hit_multi_requests            0                       # Number of requests hitting in the snoop filter with multiple (>1) holders of the requested data.
system.cpu2.mmucache.mmubus.snoop_filter.hit_multi_snoops            0                       # Number of snoops hitting in the snoop filter with multiple (>1) holders of the requested data.
system.cpu2.mmucache.mmubus.snoop_filter.hit_single_requests            0                       # Number of requests hitting in the snoop filter with a single holder of the requested data.
system.cpu2.mmucache.mmubus.snoop_filter.hit_single_snoops            0                       # Number of snoops hitting in the snoop filter with a single holder of the requested data.
system.cpu2.mmucache.mmubus.snoop_filter.tot_requests            0                       # Total number of requests made to the snoop filter.
system.cpu2.mmucache.mmubus.snoop_filter.tot_snoops            0                       # Total number of snoops made to the snoop filter.
system.cpu2.not_idle_fraction                       1                       # Percentage of non-idle cycles
system.cpu2.numCycles                              31                       # number of cpu cycles simulated
system.cpu2.numWorkItemsCompleted                   0                       # number of work items this cpu completed
system.cpu2.numWorkItemsStarted                     0                       # number of work items this cpu started
system.cpu2.num_busy_cycles                        31                       # Number of busy cycles
system.cpu2.num_cc_register_reads                   7                       # number of times the CC registers were read
system.cpu2.num_cc_register_writes                  2                       # number of times the CC registers were written
system.cpu2.num_conditional_control_insts            1                       # number of instructions that are conditional controls
system.cpu2.num_fp_alu_accesses                    20                       # Number of float alu accesses
system.cpu2.num_fp_insts                           20                       # number of float instructions
system.cpu2.num_fp_register_reads                  43                       # number of times the floating registers were read
system.cpu2.num_fp_register_writes                 19                       # number of times the floating registers were written
system.cpu2.num_func_calls                          0                       # number of times a function call or return occured
system.cpu2.num_idle_cycles                         0                       # Number of idle cycles
system.cpu2.num_int_alu_accesses                    5                       # Number of integer alu accesses
system.cpu2.num_int_insts                           5                       # number of integer instructions
system.cpu2.num_int_register_reads                 10                       # number of times the integer registers were read
system.cpu2.num_int_register_writes                 2                       # number of times the integer registers were written
system.cpu2.num_load_insts                          2                       # Number of load instructions
system.cpu2.num_mem_refs                            2                       # number of memory refs
system.cpu2.num_store_insts                         0                       # Number of store instructions
system.cpu2.num_vec_alu_accesses                    0                       # Number of vector alu accesses
system.cpu2.num_vec_insts                           0                       # number of vector instructions
system.cpu2.num_vec_register_reads                  0                       # number of times the vector registers were read
system.cpu2.num_vec_register_writes                 0                       # number of times the vector registers were written
system.cpu2.op_class::No_OpClass                    0      0.00%      0.00% # Class of executed instruction
system.cpu2.op_class::IntAlu                        7     30.43%     30.43% # Class of executed instruction
system.cpu2.op_class::IntMult                       0      0.00%     30.43% # Class of executed instruction
system.cpu2.op_class::IntDiv                        0      0.00%     30.43% # Class of executed instruction
system.cpu2.op_class::FloatAdd                      2      8.70%     39.13% # Class of executed instruction
system.cpu2.op_class::FloatCmp                      0      0.00%     39.13% # Class of executed instruction
system.cpu2.op_class::FloatCvt                      0      0.00%     39.13% # Class of executed instruction
system.cpu2.op_class::FloatMult                     0      0.00%     39.13% # Class of executed instruction
system.cpu2.op_class::FloatMultAcc                  0      0.00%     39.13% # Class of executed instruction
system.cpu2.op_class::FloatDiv                      0      0.00%     39.13% # Class of executed instruction
system.cpu2.op_class::FloatMisc                     0      0.00%     39.13% # Class of executed instruction
system.cpu2.op_class::FloatSqrt                     0      0.00%     39.13% # Class of executed instruction
system.cpu2.op_class::SimdAdd                       0      0.00%     39.13% # Class of executed instruction
system.cpu2.op_class::SimdAddAcc                    0      0.00%     39.13% # Class of executed instruction
system.cpu2.op_class::SimdAlu                       0      0.00%     39.13% # Class of executed instruction
system.cpu2.op_class::SimdCmp                       0      0.00%     39.13% # Class of executed instruction
system.cpu2.op_class::SimdCvt                       0      0.00%     39.13% # Class of executed instruction
system.cpu2.op_class::SimdMisc                      0      0.00%     39.13% # Class of executed instruction
system.cpu2.op_class::SimdMult                      0      0.00%     39.13% # Class of executed instruction
system.cpu2.op_class::SimdMultAcc                   0      0.00%     39.13% # Class of executed instruction
system.cpu2.op_class::SimdShift                     0      0.00%     39.13% # Class of executed instruction
system.cpu2.op_class::SimdShiftAcc                  0      0.00%     39.13% # Class of executed instruction
system.cpu2.op_class::SimdDiv                       0      0.00%     39.13% # Class of executed instruction
system.cpu2.op_class::SimdSqrt                      0      0.00%     39.13% # Class of executed instruction
system.cpu2.op_class::SimdFloatAdd                  5     21.74%     60.87% # Class of executed instruction
system.cpu2.op_class::SimdFloatAlu                  0      0.00%     60.87% # Class of executed instruction
system.cpu2.op_class::SimdFloatCmp                  1      4.35%     65.22% # Class of executed instruction
system.cpu2.op_class::SimdFloatCvt                  1      4.35%     69.57% # Class of executed instruction
system.cpu2.op_class::SimdFloatDiv                  0      0.00%     69.57% # Class of executed instruction
system.cpu2.op_class::SimdFloatMisc                 0      0.00%     69.57% # Class of executed instruction
system.cpu2.op_class::SimdFloatMult                 5     21.74%     91.30% # Class of executed instruction
system.cpu2.op_class::SimdFloatMultAcc              0      0.00%     91.30% # Class of executed instruction
system.cpu2.op_class::SimdFloatSqrt                 0      0.00%     91.30% # Class of executed instruction
system.cpu2.op_class::SimdReduceAdd                 0      0.00%     91.30% # Class of executed instruction
system.cpu2.op_class::SimdReduceAlu                 0      0.00%     91.30% # Class of executed instruction
system.cpu2.op_class::SimdReduceCmp                 0      0.00%     91.30% # Class of executed instruction
system.cpu2.op_class::SimdFloatReduceAdd            0      0.00%     91.30% # Class of executed instruction
system.cpu2.op_class::SimdFloatReduceCmp            0      0.00%     91.30% # Class of executed instruction
system.cpu2.op_class::SimdAes                       0      0.00%     91.30% # Class of executed instruction
system.cpu2.op_class::SimdAesMix                    0      0.00%     91.30% # Class of executed instruction
system.cpu2.op_class::SimdSha1Hash                  0      0.00%     91.30% # Class of executed instruction
system.cpu2.op_class::SimdSha1Hash2                 0      0.00%     91.30% # Class of executed instruction
system.cpu2.op_class::SimdSha256Hash                0      0.00%     91.30% # Class of executed instruction
system.cpu2.op_class::SimdSha256Hash2               0      0.00%     91.30% # Class of executed instruction
system.cpu2.op_class::SimdShaSigma2                 0      0.00%     91.30% # Class of executed instruction
system.cpu2.op_class::SimdShaSigma3                 0      0.00%     91.30% # Class of executed instruction
system.cpu2.op_class::SimdPredAlu                   0      0.00%     91.30% # Class of executed instruction
system.cpu2.op_class::MemRead                       0      0.00%     91.30% # Class of executed instruction
system.cpu2.op_class::MemWrite                      0      0.00%     91.30% # Class of executed instruction
system.cpu2.op_class::FloatMemRead                  2      8.70%    100.00% # Class of executed instruction
system.cpu2.op_class::FloatMemWrite                 0      0.00%    100.00% # Class of executed instruction
system.cpu2.op_class::IprAccess                     0      0.00%    100.00% # Class of executed instruction
system.cpu2.op_class::InstPrefetch                  0      0.00%    100.00% # Class of executed instruction
system.cpu2.op_class::total                        23                       # Class of executed instruction
system.cpu2.workload.numSyscalls                    0                       # Number of system calls
system.cpu3.Branches                                1                       # Number of branches fetched
system.cpu3.committedInsts                         16                       # Number of instructions committed
system.cpu3.committedOps                           23                       # Number of ops (including micro ops) committed
system.cpu3.idle_fraction                           0                       # Percentage of idle cycles
system.cpu3.l2bus.snoop_filter.hit_multi_requests           22                       # Number of requests hitting in the snoop filter with multiple (>1) holders of the requested data.
system.cpu3.l2bus.snoop_filter.hit_multi_snoops            0                       # Number of snoops hitting in the snoop filter with multiple (>1) holders of the requested data.
system.cpu3.l2bus.snoop_filter.hit_single_requests     12234524                       # Number of requests hitting in the snoop filter with a single holder of the requested data.
system.cpu3.l2bus.snoop_filter.hit_single_snoops         3876                       # Number of snoops hitting in the snoop filter with a single holder of the requested data.
system.cpu3.l2bus.snoop_filter.tot_requests     24466687                       # Total number of requests made to the snoop filter.
system.cpu3.l2bus.snoop_filter.tot_snoops         3876                       # Total number of snoops made to the snoop filter.
system.cpu3.mmucache.mmubus.snoop_filter.hit_multi_requests            0                       # Number of requests hitting in the snoop filter with multiple (>1) holders of the requested data.
system.cpu3.mmucache.mmubus.snoop_filter.hit_multi_snoops            0                       # Number of snoops hitting in the snoop filter with multiple (>1) holders of the requested data.
system.cpu3.mmucache.mmubus.snoop_filter.hit_single_requests            0                       # Number of requests hitting in the snoop filter with a single holder of the requested data.
system.cpu3.mmucache.mmubus.snoop_filter.hit_single_snoops            0                       # Number of snoops hitting in the snoop filter with a single holder of the requested data.
system.cpu3.mmucache.mmubus.snoop_filter.tot_requests            0                       # Total number of requests made to the snoop filter.
system.cpu3.mmucache.mmubus.snoop_filter.tot_snoops            0                       # Total number of snoops made to the snoop filter.
system.cpu3.not_idle_fraction                       1                       # Percentage of non-idle cycles
system.cpu3.numCycles                              31                       # number of cpu cycles simulated
system.cpu3.numWorkItemsCompleted                   0                       # number of work items this cpu completed
system.cpu3.numWorkItemsStarted                     0                       # number of work items this cpu started
system.cpu3.num_busy_cycles                        31                       # Number of busy cycles
system.cpu3.num_cc_register_reads                   7                       # number of times the CC registers were read
system.cpu3.num_cc_register_writes                  2                       # number of times the CC registers were written
system.cpu3.num_conditional_control_insts            1                       # number of instructions that are conditional controls
system.cpu3.num_fp_alu_accesses                    20                       # Number of float alu accesses
system.cpu3.num_fp_insts                           20                       # number of float instructions
system.cpu3.num_fp_register_reads                  43                       # number of times the floating registers were read
system.cpu3.num_fp_register_writes                 19                       # number of times the floating registers were written
system.cpu3.num_func_calls                          0                       # number of times a function call or return occured
system.cpu3.num_idle_cycles                         0                       # Number of idle cycles
system.cpu3.num_int_alu_accesses                    5                       # Number of integer alu accesses
system.cpu3.num_int_insts                           5                       # number of integer instructions
system.cpu3.num_int_register_reads                 10                       # number of times the integer registers were read
system.cpu3.num_int_register_writes                 2                       # number of times the integer registers were written
system.cpu3.num_load_insts                          2                       # Number of load instructions
system.cpu3.num_mem_refs                            2                       # number of memory refs
system.cpu3.num_store_insts                         0                       # Number of store instructions
system.cpu3.num_vec_alu_accesses                    0                       # Number of vector alu accesses
system.cpu3.num_vec_insts                           0                       # number of vector instructions
system.cpu3.num_vec_register_reads                  0                       # number of times the vector registers were read
system.cpu3.num_vec_register_writes                 0                       # number of times the vector registers were written
system.cpu3.op_class::No_OpClass                    0      0.00%      0.00% # Class of executed instruction
system.cpu3.op_class::IntAlu                        7     30.43%     30.43% # Class of executed instruction
system.cpu3.op_class::IntMult                       0      0.00%     30.43% # Class of executed instruction
system.cpu3.op_class::IntDiv                        0      0.00%     30.43% # Class of executed instruction
system.cpu3.op_class::FloatAdd                      2      8.70%     39.13% # Class of executed instruction
system.cpu3.op_class::FloatCmp                      0      0.00%     39.13% # Class of executed instruction
system.cpu3.op_class::FloatCvt                      0      0.00%     39.13% # Class of executed instruction
system.cpu3.op_class::FloatMult                     0      0.00%     39.13% # Class of executed instruction
system.cpu3.op_class::FloatMultAcc                  0      0.00%     39.13% # Class of executed instruction
system.cpu3.op_class::FloatDiv                      0      0.00%     39.13% # Class of executed instruction
system.cpu3.op_class::FloatMisc                     0      0.00%     39.13% # Class of executed instruction
system.cpu3.op_class::FloatSqrt                     0      0.00%     39.13% # Class of executed instruction
system.cpu3.op_class::SimdAdd                       0      0.00%     39.13% # Class of executed instruction
system.cpu3.op_class::SimdAddAcc                    0      0.00%     39.13% # Class of executed instruction
system.cpu3.op_class::SimdAlu                       0      0.00%     39.13% # Class of executed instruction
system.cpu3.op_class::SimdCmp                       0      0.00%     39.13% # Class of executed instruction
system.cpu3.op_class::SimdCvt                       0      0.00%     39.13% # Class of executed instruction
system.cpu3.op_class::SimdMisc                      0      0.00%     39.13% # Class of executed instruction
system.cpu3.op_class::SimdMult                      0      0.00%     39.13% # Class of executed instruction
system.cpu3.op_class::SimdMultAcc                   0      0.00%     39.13% # Class of executed instruction
system.cpu3.op_class::SimdShift                     0      0.00%     39.13% # Class of executed instruction
system.cpu3.op_class::SimdShiftAcc                  0      0.00%     39.13% # Class of executed instruction
system.cpu3.op_class::SimdDiv                       0      0.00%     39.13% # Class of executed instruction
system.cpu3.op_class::SimdSqrt                      0      0.00%     39.13% # Class of executed instruction
system.cpu3.op_class::SimdFloatAdd                  5     21.74%     60.87% # Class of executed instruction
system.cpu3.op_class::SimdFloatAlu                  0      0.00%     60.87% # Class of executed instruction
system.cpu3.op_class::SimdFloatCmp                  1      4.35%     65.22% # Class of executed instruction
system.cpu3.op_class::SimdFloatCvt                  1      4.35%     69.57% # Class of executed instruction
system.cpu3.op_class::SimdFloatDiv                  0      0.00%     69.57% # Class of executed instruction
system.cpu3.op_class::SimdFloatMisc                 0      0.00%     69.57% # Class of executed instruction
system.cpu3.op_class::SimdFloatMult                 5     21.74%     91.30% # Class of executed instruction
system.cpu3.op_class::SimdFloatMultAcc              0      0.00%     91.30% # Class of executed instruction
system.cpu3.op_class::SimdFloatSqrt                 0      0.00%     91.30% # Class of executed instruction
system.cpu3.op_class::SimdReduceAdd                 0      0.00%     91.30% # Class of executed instruction
system.cpu3.op_class::SimdReduceAlu                 0      0.00%     91.30% # Class of executed instruction
system.cpu3.op_class::SimdReduceCmp                 0      0.00%     91.30% # Class of executed instruction
system.cpu3.op_class::SimdFloatReduceAdd            0      0.00%     91.30% # Class of executed instruction
system.cpu3.op_class::SimdFloatReduceCmp            0      0.00%     91.30% # Class of executed instruction
system.cpu3.op_class::SimdAes                       0      0.00%     91.30% # Class of executed instruction
system.cpu3.op_class::SimdAesMix                    0      0.00%     91.30% # Class of executed instruction
system.cpu3.op_class::SimdSha1Hash                  0      0.00%     91.30% # Class of executed instruction
system.cpu3.op_class::SimdSha1Hash2                 0      0.00%     91.30% # Class of executed instruction
system.cpu3.op_class::SimdSha256Hash                0      0.00%     91.30% # Class of executed instruction
system.cpu3.op_class::SimdSha256Hash2               0      0.00%     91.30% # Class of executed instruction
system.cpu3.op_class::SimdShaSigma2                 0      0.00%     91.30% # Class of executed instruction
system.cpu3.op_class::SimdShaSigma3                 0      0.00%     91.30% # Class of executed instruction
system.cpu3.op_class::SimdPredAlu                   0      0.00%     91.30% # Class of executed instruction
system.cpu3.op_class::MemRead                       0      0.00%     91.30% # Class of executed instruction
system.cpu3.op_class::MemWrite                      0      0.00%     91.30% # Class of executed instruction
system.cpu3.op_class::FloatMemRead                  2      8.70%    100.00% # Class of executed instruction
system.cpu3.op_class::FloatMemWrite                 0      0.00%    100.00% # Class of executed instruction
system.cpu3.op_class::IprAccess                     0      0.00%    100.00% # Class of executed instruction
system.cpu3.op_class::InstPrefetch                  0      0.00%    100.00% # Class of executed instruction
system.cpu3.op_class::total                        23                       # Class of executed instruction
system.cpu3.workload.numSyscalls                    0                       # Number of system calls
system.l3bus.snoop_filter.hit_multi_requests            0                       # Number of requests hitting in the snoop filter with multiple (>1) holders of the requested data.
system.l3bus.snoop_filter.hit_multi_snoops            0                       # Number of snoops hitting in the snoop filter with multiple (>1) holders of the requested data.
system.l3bus.snoop_filter.hit_single_requests     43677788                       # Number of requests hitting in the snoop filter with a single holder of the requested data.
system.l3bus.snoop_filter.hit_single_snoops            0                       # Number of snoops hitting in the snoop filter with a single holder of the requested data.
system.l3bus.snoop_filter.tot_requests       87288758                       # Total number of requests made to the snoop filter.
system.l3bus.snoop_filter.tot_snoops                0                       # Total number of snoops made to the snoop filter.
system.membus.snoop_filter.hit_multi_requests            0                       # Number of requests hitting in the snoop filter with multiple (>1) holders of the requested data.
system.membus.snoop_filter.hit_multi_snoops            0                       # Number of snoops hitting in the snoop filter with multiple (>1) holders of the requested data.
system.membus.snoop_filter.hit_single_requests     34601802                       # Number of requests hitting in the snoop filter with a single holder of the requested data.
system.membus.snoop_filter.hit_single_snoops            0                       # Number of snoops hitting in the snoop filter with a single holder of the requested data.
system.membus.snoop_filter.tot_requests      69273058                       # Total number of requests made to the snoop filter.
system.membus.snoop_filter.tot_snoops               0                       # Total number of snoops made to the snoop filter.
system.switch_cpus0.cc_regfile_reads        195578987                       # number of cc regfile reads
system.switch_cpus0.cc_regfile_writes       121681754                       # number of cc regfile writes
system.switch_cpus0.committedInsts          243554050                       # Number of Instructions Simulated
system.switch_cpus0.committedOps            435122559                       # Number of Ops (including micro ops) Simulated
system.switch_cpus0.cpi                      6.749887                       # CPI: Cycles Per Instruction
system.switch_cpus0.cpi_total                6.749887                       # CPI: Total CPI of All Threads
system.switch_cpus0.fp_regfile_reads        373446220                       # number of floating regfile reads
system.switch_cpus0.fp_regfile_writes       281070384                       # number of floating regfile writes
system.switch_cpus0.idleCycles                  47267                       # Total number of cycles that the CPU has spent unscheduled due to idling
system.switch_cpus0.iew.branchMispredicts       623972                       # Number of branch mispredicts detected at execute
system.switch_cpus0.iew.exec_branches        28812728                       # Number of branches executed
system.switch_cpus0.iew.exec_nop                    0                       # number of nop insts executed
system.switch_cpus0.iew.exec_rate            0.358986                       # Inst execution rate
system.switch_cpus0.iew.exec_refs           183995820                       # number of memory reference insts executed
system.switch_cpus0.iew.exec_stores          63946538                       # Number of stores executed
system.switch_cpus0.iew.exec_swp                    0                       # number of swp insts executed
system.switch_cpus0.iew.iewBlockCycles      302522952                       # Number of cycles IEW is blocking
system.switch_cpus0.iew.iewDispLoadInsts    113778381                       # Number of dispatched load instructions
system.switch_cpus0.iew.iewDispNonSpecInsts           94                       # Number of dispatched non-speculative instructions
system.switch_cpus0.iew.iewDispSquashedInsts         9020                       # Number of squashed instructions skipped by dispatch
system.switch_cpus0.iew.iewDispStoreInsts     65462968                       # Number of dispatched store instructions
system.switch_cpus0.iew.iewDispatchedInsts    593370999                       # Number of instructions dispatched to IQ
system.switch_cpus0.iew.iewExecLoadInsts    120049282                       # Number of load instructions executed
system.switch_cpus0.iew.iewExecSquashedInsts      1276791                       # Number of squashed instructions skipped in execute
system.switch_cpus0.iew.iewExecutedInsts    590158682                       # Number of executed instructions
system.switch_cpus0.iew.iewIQFullEvents       1709397                       # Number of times the IQ has become full, causing a stall
system.switch_cpus0.iew.iewIdleCycles               0                       # Number of cycles IEW is idle
system.switch_cpus0.iew.iewLSQFullEvents    325122036                       # Number of times the LSQ has become full, causing a stall
system.switch_cpus0.iew.iewSquashCycles       1657523                       # Number of cycles IEW is squashing
system.switch_cpus0.iew.iewUnblockCycles    327809103                       # Number of cycles IEW is unblocking
system.switch_cpus0.iew.memOrderViolationEvents         6625                       # Number of memory order violations
system.switch_cpus0.iew.predictedNotTakenIncorrect       311953                       # Number of branches that were predicted not taken incorrectly
system.switch_cpus0.iew.predictedTakenIncorrect       312019                       # Number of branches that were predicted taken incorrectly
system.switch_cpus0.iew.wb_consumers        543347782                       # num instructions consuming a value
system.switch_cpus0.iew.wb_count            567103310                       # cumulative count of insts written-back
system.switch_cpus0.iew.wb_fanout            0.618745                       # average fanout of values written-back
system.switch_cpus0.iew.wb_producers        336193614                       # num instructions producing a value
system.switch_cpus0.iew.wb_rate              0.344961                       # insts written-back per cycle
system.switch_cpus0.iew.wb_sent             580114570                       # cumulative count of insts sent to commit
system.switch_cpus0.int_regfile_reads       583427232                       # number of integer regfile reads
system.switch_cpus0.int_regfile_writes      187929747                       # number of integer regfile writes
system.switch_cpus0.ipc                      0.148151                       # IPC: Instructions Per Cycle
system.switch_cpus0.ipc_total                0.148151                       # IPC: Total IPC of All Threads
system.switch_cpus0.iq.FU_type_0::No_OpClass     13021182      2.20%      2.20% # Type of FU issued
system.switch_cpus0.iq.FU_type_0::IntAlu    244989098     41.42%     43.62% # Type of FU issued
system.switch_cpus0.iq.FU_type_0::IntMult            0      0.00%     43.62% # Type of FU issued
system.switch_cpus0.iq.FU_type_0::IntDiv            0      0.00%     43.62% # Type of FU issued
system.switch_cpus0.iq.FU_type_0::FloatAdd     71767190     12.13%     55.76% # Type of FU issued
system.switch_cpus0.iq.FU_type_0::FloatCmp            0      0.00%     55.76% # Type of FU issued
system.switch_cpus0.iq.FU_type_0::FloatCvt            0      0.00%     55.76% # Type of FU issued
system.switch_cpus0.iq.FU_type_0::FloatMult            0      0.00%     55.76% # Type of FU issued
system.switch_cpus0.iq.FU_type_0::FloatMultAcc            0      0.00%     55.76% # Type of FU issued
system.switch_cpus0.iq.FU_type_0::FloatDiv            0      0.00%     55.76% # Type of FU issued
system.switch_cpus0.iq.FU_type_0::FloatMisc            0      0.00%     55.76% # Type of FU issued
system.switch_cpus0.iq.FU_type_0::FloatSqrt            0      0.00%     55.76% # Type of FU issued
system.switch_cpus0.iq.FU_type_0::SimdAdd            0      0.00%     55.76% # Type of FU issued
system.switch_cpus0.iq.FU_type_0::SimdAddAcc            0      0.00%     55.76% # Type of FU issued
system.switch_cpus0.iq.FU_type_0::SimdAlu        50259      0.01%     55.77% # Type of FU issued
system.switch_cpus0.iq.FU_type_0::SimdCmp            0      0.00%     55.77% # Type of FU issued
system.switch_cpus0.iq.FU_type_0::SimdCvt            0      0.00%     55.77% # Type of FU issued
system.switch_cpus0.iq.FU_type_0::SimdMisc            0      0.00%     55.77% # Type of FU issued
system.switch_cpus0.iq.FU_type_0::SimdMult            0      0.00%     55.77% # Type of FU issued
system.switch_cpus0.iq.FU_type_0::SimdMultAcc            0      0.00%     55.77% # Type of FU issued
system.switch_cpus0.iq.FU_type_0::SimdShift            0      0.00%     55.77% # Type of FU issued
system.switch_cpus0.iq.FU_type_0::SimdShiftAcc            0      0.00%     55.77% # Type of FU issued
system.switch_cpus0.iq.FU_type_0::SimdDiv            0      0.00%     55.77% # Type of FU issued
system.switch_cpus0.iq.FU_type_0::SimdSqrt            0      0.00%     55.77% # Type of FU issued
system.switch_cpus0.iq.FU_type_0::SimdFloatAdd     28082169      4.75%     60.52% # Type of FU issued
system.switch_cpus0.iq.FU_type_0::SimdFloatAlu            0      0.00%     60.52% # Type of FU issued
system.switch_cpus0.iq.FU_type_0::SimdFloatCmp     28971470      4.90%     65.41% # Type of FU issued
system.switch_cpus0.iq.FU_type_0::SimdFloatCvt      5556786      0.94%     66.35% # Type of FU issued
system.switch_cpus0.iq.FU_type_0::SimdFloatDiv            0      0.00%     66.35% # Type of FU issued
system.switch_cpus0.iq.FU_type_0::SimdFloatMisc            0      0.00%     66.35% # Type of FU issued
system.switch_cpus0.iq.FU_type_0::SimdFloatMult     14676550      2.48%     68.84% # Type of FU issued
system.switch_cpus0.iq.FU_type_0::SimdFloatMultAcc            0      0.00%     68.84% # Type of FU issued
system.switch_cpus0.iq.FU_type_0::SimdFloatSqrt            0      0.00%     68.84% # Type of FU issued
system.switch_cpus0.iq.FU_type_0::SimdReduceAdd            0      0.00%     68.84% # Type of FU issued
system.switch_cpus0.iq.FU_type_0::SimdReduceAlu            0      0.00%     68.84% # Type of FU issued
system.switch_cpus0.iq.FU_type_0::SimdReduceCmp            0      0.00%     68.84% # Type of FU issued
system.switch_cpus0.iq.FU_type_0::SimdFloatReduceAdd            0      0.00%     68.84% # Type of FU issued
system.switch_cpus0.iq.FU_type_0::SimdFloatReduceCmp            0      0.00%     68.84% # Type of FU issued
system.switch_cpus0.iq.FU_type_0::SimdAes            0      0.00%     68.84% # Type of FU issued
system.switch_cpus0.iq.FU_type_0::SimdAesMix            0      0.00%     68.84% # Type of FU issued
system.switch_cpus0.iq.FU_type_0::SimdSha1Hash            0      0.00%     68.84% # Type of FU issued
system.switch_cpus0.iq.FU_type_0::SimdSha1Hash2            0      0.00%     68.84% # Type of FU issued
system.switch_cpus0.iq.FU_type_0::SimdSha256Hash            0      0.00%     68.84% # Type of FU issued
system.switch_cpus0.iq.FU_type_0::SimdSha256Hash2            0      0.00%     68.84% # Type of FU issued
system.switch_cpus0.iq.FU_type_0::SimdShaSigma2            0      0.00%     68.84% # Type of FU issued
system.switch_cpus0.iq.FU_type_0::SimdShaSigma3            0      0.00%     68.84% # Type of FU issued
system.switch_cpus0.iq.FU_type_0::SimdPredAlu            0      0.00%     68.84% # Type of FU issued
system.switch_cpus0.iq.FU_type_0::MemRead     26654834      4.51%     73.34% # Type of FU issued
system.switch_cpus0.iq.FU_type_0::MemWrite     21301877      3.60%     76.94% # Type of FU issued
system.switch_cpus0.iq.FU_type_0::FloatMemRead     93622625     15.83%     92.77% # Type of FU issued
system.switch_cpus0.iq.FU_type_0::FloatMemWrite     42741433      7.23%    100.00% # Type of FU issued
system.switch_cpus0.iq.FU_type_0::IprAccess            0      0.00%    100.00% # Type of FU issued
system.switch_cpus0.iq.FU_type_0::InstPrefetch            0      0.00%    100.00% # Type of FU issued
system.switch_cpus0.iq.FU_type_0::total     591435473                       # Type of FU issued
system.switch_cpus0.iq.fp_alu_accesses      352376084                       # Number of floating point alu accesses
system.switch_cpus0.iq.fp_inst_queue_reads    690066414                       # Number of floating instruction queue reads
system.switch_cpus0.iq.fp_inst_queue_wakeup_accesses    329299052                       # Number of floating instruction queue wakeup accesses
system.switch_cpus0.iq.fp_inst_queue_writes    381052625                       # Number of floating instruction queue writes
system.switch_cpus0.iq.fu_busy_cnt           24459361                       # FU busy when requested
system.switch_cpus0.iq.fu_busy_rate          0.041356                       # FU busy rate (busy events/executed inst)
system.switch_cpus0.iq.fu_full::No_OpClass            0      0.00%      0.00% # attempts to use FU when none available
system.switch_cpus0.iq.fu_full::IntAlu        1157073      4.73%      4.73% # attempts to use FU when none available
system.switch_cpus0.iq.fu_full::IntMult             0      0.00%      4.73% # attempts to use FU when none available
system.switch_cpus0.iq.fu_full::IntDiv              0      0.00%      4.73% # attempts to use FU when none available
system.switch_cpus0.iq.fu_full::FloatAdd        22320      0.09%      4.82% # attempts to use FU when none available
system.switch_cpus0.iq.fu_full::FloatCmp            0      0.00%      4.82% # attempts to use FU when none available
system.switch_cpus0.iq.fu_full::FloatCvt            0      0.00%      4.82% # attempts to use FU when none available
system.switch_cpus0.iq.fu_full::FloatMult            0      0.00%      4.82% # attempts to use FU when none available
system.switch_cpus0.iq.fu_full::FloatMultAcc            0      0.00%      4.82% # attempts to use FU when none available
system.switch_cpus0.iq.fu_full::FloatDiv            0      0.00%      4.82% # attempts to use FU when none available
system.switch_cpus0.iq.fu_full::FloatMisc            0      0.00%      4.82% # attempts to use FU when none available
system.switch_cpus0.iq.fu_full::FloatSqrt            0      0.00%      4.82% # attempts to use FU when none available
system.switch_cpus0.iq.fu_full::SimdAdd             0      0.00%      4.82% # attempts to use FU when none available
system.switch_cpus0.iq.fu_full::SimdAddAcc            0      0.00%      4.82% # attempts to use FU when none available
system.switch_cpus0.iq.fu_full::SimdAlu             0      0.00%      4.82% # attempts to use FU when none available
system.switch_cpus0.iq.fu_full::SimdCmp             0      0.00%      4.82% # attempts to use FU when none available
system.switch_cpus0.iq.fu_full::SimdCvt             0      0.00%      4.82% # attempts to use FU when none available
system.switch_cpus0.iq.fu_full::SimdMisc            0      0.00%      4.82% # attempts to use FU when none available
system.switch_cpus0.iq.fu_full::SimdMult            0      0.00%      4.82% # attempts to use FU when none available
system.switch_cpus0.iq.fu_full::SimdMultAcc            0      0.00%      4.82% # attempts to use FU when none available
system.switch_cpus0.iq.fu_full::SimdShift            0      0.00%      4.82% # attempts to use FU when none available
system.switch_cpus0.iq.fu_full::SimdShiftAcc            0      0.00%      4.82% # attempts to use FU when none available
system.switch_cpus0.iq.fu_full::SimdDiv             0      0.00%      4.82% # attempts to use FU when none available
system.switch_cpus0.iq.fu_full::SimdSqrt            0      0.00%      4.82% # attempts to use FU when none available
system.switch_cpus0.iq.fu_full::SimdFloatAdd       207522      0.85%      5.67% # attempts to use FU when none available
system.switch_cpus0.iq.fu_full::SimdFloatAlu            0      0.00%      5.67% # attempts to use FU when none available
system.switch_cpus0.iq.fu_full::SimdFloatCmp       890932      3.64%      9.31% # attempts to use FU when none available
system.switch_cpus0.iq.fu_full::SimdFloatCvt            0      0.00%      9.31% # attempts to use FU when none available
system.switch_cpus0.iq.fu_full::SimdFloatDiv            0      0.00%      9.31% # attempts to use FU when none available
system.switch_cpus0.iq.fu_full::SimdFloatMisc            0      0.00%      9.31% # attempts to use FU when none available
system.switch_cpus0.iq.fu_full::SimdFloatMult        22987      0.09%      9.41% # attempts to use FU when none available
system.switch_cpus0.iq.fu_full::SimdFloatMultAcc            0      0.00%      9.41% # attempts to use FU when none available
system.switch_cpus0.iq.fu_full::SimdFloatSqrt            0      0.00%      9.41% # attempts to use FU when none available
system.switch_cpus0.iq.fu_full::SimdReduceAdd            0      0.00%      9.41% # attempts to use FU when none available
system.switch_cpus0.iq.fu_full::SimdReduceAlu            0      0.00%      9.41% # attempts to use FU when none available
system.switch_cpus0.iq.fu_full::SimdReduceCmp            0      0.00%      9.41% # attempts to use FU when none available
system.switch_cpus0.iq.fu_full::SimdFloatReduceAdd            0      0.00%      9.41% # attempts to use FU when none available
system.switch_cpus0.iq.fu_full::SimdFloatReduceCmp            0      0.00%      9.41% # attempts to use FU when none available
system.switch_cpus0.iq.fu_full::SimdAes             0      0.00%      9.41% # attempts to use FU when none available
system.switch_cpus0.iq.fu_full::SimdAesMix            0      0.00%      9.41% # attempts to use FU when none available
system.switch_cpus0.iq.fu_full::SimdSha1Hash            0      0.00%      9.41% # attempts to use FU when none available
system.switch_cpus0.iq.fu_full::SimdSha1Hash2            0      0.00%      9.41% # attempts to use FU when none available
system.switch_cpus0.iq.fu_full::SimdSha256Hash            0      0.00%      9.41% # attempts to use FU when none available
system.switch_cpus0.iq.fu_full::SimdSha256Hash2            0      0.00%      9.41% # attempts to use FU when none available
system.switch_cpus0.iq.fu_full::SimdShaSigma2            0      0.00%      9.41% # attempts to use FU when none available
system.switch_cpus0.iq.fu_full::SimdShaSigma3            0      0.00%      9.41% # attempts to use FU when none available
system.switch_cpus0.iq.fu_full::SimdPredAlu            0      0.00%      9.41% # attempts to use FU when none available
system.switch_cpus0.iq.fu_full::MemRead       1772388      7.25%     16.65% # attempts to use FU when none available
system.switch_cpus0.iq.fu_full::MemWrite      6846752     27.99%     44.65% # attempts to use FU when none available
system.switch_cpus0.iq.fu_full::FloatMemRead      9833915     40.21%     84.85% # attempts to use FU when none available
system.switch_cpus0.iq.fu_full::FloatMemWrite      3705472     15.15%    100.00% # attempts to use FU when none available
system.switch_cpus0.iq.fu_full::IprAccess            0      0.00%    100.00% # attempts to use FU when none available
system.switch_cpus0.iq.fu_full::InstPrefetch            0      0.00%    100.00% # attempts to use FU when none available
system.switch_cpus0.iq.int_alu_accesses     250497568                       # Number of integer alu accesses
system.switch_cpus0.iq.int_inst_queue_reads   2161360667                       # Number of integer instruction queue reads
system.switch_cpus0.iq.int_inst_queue_wakeup_accesses    237804258                       # Number of integer instruction queue wakeup accesses
system.switch_cpus0.iq.int_inst_queue_writes    370573267                       # Number of integer instruction queue writes
system.switch_cpus0.iq.iqInstsAdded         593361822                       # Number of instructions added to the IQ (excludes non-spec)
system.switch_cpus0.iq.iqInstsIssued        591435473                       # Number of instructions issued
system.switch_cpus0.iq.iqNonSpecInstsAdded         9177                       # Number of non-speculative instructions added to the IQ
system.switch_cpus0.iq.iqSquashedInstsExamined    158248440                       # Number of squashed instructions iterated over during squash; mainly for profiling
system.switch_cpus0.iq.iqSquashedInstsIssued       181802                       # Number of squashed instructions issued
system.switch_cpus0.iq.iqSquashedNonSpecRemoved         8279                       # Number of squashed non-spec instructions that were removed
system.switch_cpus0.iq.iqSquashedOperandsExamined     51709096                       # Number of squashed operands that are examined and possibly removed from graph
system.switch_cpus0.iq.issued_per_cycle::samples   1643914972                       # Number of insts issued each cycle
system.switch_cpus0.iq.issued_per_cycle::mean     0.359773                       # Number of insts issued each cycle
system.switch_cpus0.iq.issued_per_cycle::stdev     1.298730                       # Number of insts issued each cycle
system.switch_cpus0.iq.issued_per_cycle::underflows            0      0.00%      0.00% # Number of insts issued each cycle
system.switch_cpus0.iq.issued_per_cycle::0   1478899955     89.96%     89.96% # Number of insts issued each cycle
system.switch_cpus0.iq.issued_per_cycle::1     41001878      2.49%     92.46% # Number of insts issued each cycle
system.switch_cpus0.iq.issued_per_cycle::2     28500336      1.73%     94.19% # Number of insts issued each cycle
system.switch_cpus0.iq.issued_per_cycle::3     20662175      1.26%     95.45% # Number of insts issued each cycle
system.switch_cpus0.iq.issued_per_cycle::4     20007952      1.22%     96.66% # Number of insts issued each cycle
system.switch_cpus0.iq.issued_per_cycle::5     15631240      0.95%     97.61% # Number of insts issued each cycle
system.switch_cpus0.iq.issued_per_cycle::6     15332542      0.93%     98.55% # Number of insts issued each cycle
system.switch_cpus0.iq.issued_per_cycle::7      9768014      0.59%     99.14% # Number of insts issued each cycle
system.switch_cpus0.iq.issued_per_cycle::8     14110880      0.86%    100.00% # Number of insts issued each cycle
system.switch_cpus0.iq.issued_per_cycle::overflows            0      0.00%    100.00% # Number of insts issued each cycle
system.switch_cpus0.iq.issued_per_cycle::min_value            0                       # Number of insts issued each cycle
system.switch_cpus0.iq.issued_per_cycle::max_value            8                       # Number of insts issued each cycle
system.switch_cpus0.iq.issued_per_cycle::total   1643914972                       # Number of insts issued each cycle
system.switch_cpus0.iq.rate                  0.359762                       # Inst issue rate
system.switch_cpus0.iq.vec_alu_accesses             0                       # Number of vector alu accesses
system.switch_cpus0.iq.vec_inst_queue_reads            0                       # Number of vector instruction queue reads
system.switch_cpus0.iq.vec_inst_queue_wakeup_accesses            0                       # Number of vector instruction queue wakeup accesses
system.switch_cpus0.iq.vec_inst_queue_writes            0                       # Number of vector instruction queue writes
system.switch_cpus0.memDep0.conflictingLoads     17008797                       # Number of conflicting loads.
system.switch_cpus0.memDep0.conflictingStores     16157511                       # Number of conflicting stores.
system.switch_cpus0.memDep0.insertedLoads    113778381                       # Number of loads inserted to the mem dependence unit.
system.switch_cpus0.memDep0.insertedStores     65462968                       # Number of stores inserted to the mem dependence unit.
system.switch_cpus0.misc_regfile_reads      243387837                       # number of misc regfile reads
system.switch_cpus0.misc_regfile_writes             1                       # number of misc regfile writes
system.switch_cpus0.numCycles              1643962239                       # number of cpu cycles simulated
system.switch_cpus0.numWorkItemsCompleted            0                       # number of work items this cpu completed
system.switch_cpus0.numWorkItemsStarted             0                       # number of work items this cpu started
system.switch_cpus0.timesIdled                    146                       # Number of times that the entire CPU went into an idle state and unscheduled itself
system.switch_cpus1.cc_regfile_reads        199897402                       # number of cc regfile reads
system.switch_cpus1.cc_regfile_writes       123642084                       # number of cc regfile writes
system.switch_cpus1.committedInsts          249730232                       # Number of Instructions Simulated
system.switch_cpus1.committedOps            446513609                       # Number of Ops (including micro ops) Simulated
system.switch_cpus1.cpi                      6.582952                       # CPI: Cycles Per Instruction
system.switch_cpus1.cpi_total                6.582952                       # CPI: Total CPI of All Threads
system.switch_cpus1.fp_regfile_reads        381402321                       # number of floating regfile reads
system.switch_cpus1.fp_regfile_writes       287281627                       # number of floating regfile writes
system.switch_cpus1.idleCycles                  42783                       # Total number of cycles that the CPU has spent unscheduled due to idling
system.switch_cpus1.iew.branchMispredicts       646953                       # Number of branch mispredicts detected at execute
system.switch_cpus1.iew.exec_branches        29526591                       # Number of branches executed
system.switch_cpus1.iew.exec_nop                    0                       # number of nop insts executed
system.switch_cpus1.iew.exec_rate            0.366012                       # Inst execution rate
system.switch_cpus1.iew.exec_refs           186817952                       # number of memory reference insts executed
system.switch_cpus1.iew.exec_stores          65040454                       # Number of stores executed
system.switch_cpus1.iew.exec_swp                    0                       # number of swp insts executed
system.switch_cpus1.iew.iewBlockCycles      305752925                       # Number of cycles IEW is blocking
system.switch_cpus1.iew.iewDispLoadInsts    116050530                       # Number of dispatched load instructions
system.switch_cpus1.iew.iewDispNonSpecInsts          117                       # Number of dispatched non-speculative instructions
system.switch_cpus1.iew.iewDispSquashedInsts        10649                       # Number of squashed instructions skipped by dispatch
system.switch_cpus1.iew.iewDispStoreInsts     66595344                       # Number of dispatched store instructions
system.switch_cpus1.iew.iewDispatchedInsts    605755212                       # Number of instructions dispatched to IQ
system.switch_cpus1.iew.iewExecLoadInsts    121777498                       # Number of load instructions executed
system.switch_cpus1.iew.iewExecSquashedInsts      1393113                       # Number of squashed instructions skipped in execute
system.switch_cpus1.iew.iewExecutedInsts    601710723                       # Number of executed instructions
system.switch_cpus1.iew.iewIQFullEvents       1618721                       # Number of times the IQ has become full, causing a stall
system.switch_cpus1.iew.iewIdleCycles               0                       # Number of cycles IEW is idle
system.switch_cpus1.iew.iewLSQFullEvents    343859835                       # Number of times the LSQ has become full, causing a stall
system.switch_cpus1.iew.iewSquashCycles       1686797                       # Number of cycles IEW is squashing
system.switch_cpus1.iew.iewUnblockCycles    346382346                       # Number of cycles IEW is unblocking
system.switch_cpus1.iew.memOrderViolationEvents         7798                       # Number of memory order violations
system.switch_cpus1.iew.predictedNotTakenIncorrect       321350                       # Number of branches that were predicted not taken incorrectly
system.switch_cpus1.iew.predictedTakenIncorrect       325603                       # Number of branches that were predicted taken incorrectly
system.switch_cpus1.iew.wb_consumers        556262683                       # num instructions consuming a value
system.switch_cpus1.iew.wb_count            579129440                       # cumulative count of insts written-back
system.switch_cpus1.iew.wb_fanout            0.618740                       # average fanout of values written-back
system.switch_cpus1.iew.wb_producers        344182234                       # num instructions producing a value
system.switch_cpus1.iew.wb_rate              0.352277                       # insts written-back per cycle
system.switch_cpus1.iew.wb_sent             592278912                       # cumulative count of insts sent to commit
system.switch_cpus1.int_regfile_reads       594139191                       # number of integer regfile reads
system.switch_cpus1.int_regfile_writes      191806947                       # number of integer regfile writes
system.switch_cpus1.ipc                      0.151908                       # IPC: Instructions Per Cycle
system.switch_cpus1.ipc_total                0.151908                       # IPC: Total IPC of All Threads
system.switch_cpus1.iq.FU_type_0::No_OpClass     13174401      2.18%      2.18% # Type of FU issued
system.switch_cpus1.iq.FU_type_0::IntAlu    250126706     41.47%     43.66% # Type of FU issued
system.switch_cpus1.iq.FU_type_0::IntMult            0      0.00%     43.66% # Type of FU issued
system.switch_cpus1.iq.FU_type_0::IntDiv            0      0.00%     43.66% # Type of FU issued
system.switch_cpus1.iq.FU_type_0::FloatAdd     73567458     12.20%     55.86% # Type of FU issued
system.switch_cpus1.iq.FU_type_0::FloatCmp            0      0.00%     55.86% # Type of FU issued
system.switch_cpus1.iq.FU_type_0::FloatCvt            0      0.00%     55.86% # Type of FU issued
system.switch_cpus1.iq.FU_type_0::FloatMult            0      0.00%     55.86% # Type of FU issued
system.switch_cpus1.iq.FU_type_0::FloatMultAcc            0      0.00%     55.86% # Type of FU issued
system.switch_cpus1.iq.FU_type_0::FloatDiv            0      0.00%     55.86% # Type of FU issued
system.switch_cpus1.iq.FU_type_0::FloatMisc            0      0.00%     55.86% # Type of FU issued
system.switch_cpus1.iq.FU_type_0::FloatSqrt            0      0.00%     55.86% # Type of FU issued
system.switch_cpus1.iq.FU_type_0::SimdAdd            0      0.00%     55.86% # Type of FU issued
system.switch_cpus1.iq.FU_type_0::SimdAddAcc            0      0.00%     55.86% # Type of FU issued
system.switch_cpus1.iq.FU_type_0::SimdAlu        58002      0.01%     55.87% # Type of FU issued
system.switch_cpus1.iq.FU_type_0::SimdCmp            0      0.00%     55.87% # Type of FU issued
system.switch_cpus1.iq.FU_type_0::SimdCvt            0      0.00%     55.87% # Type of FU issued
system.switch_cpus1.iq.FU_type_0::SimdMisc            0      0.00%     55.87% # Type of FU issued
system.switch_cpus1.iq.FU_type_0::SimdMult            0      0.00%     55.87% # Type of FU issued
system.switch_cpus1.iq.FU_type_0::SimdMultAcc            0      0.00%     55.87% # Type of FU issued
system.switch_cpus1.iq.FU_type_0::SimdShift            0      0.00%     55.87% # Type of FU issued
system.switch_cpus1.iq.FU_type_0::SimdShiftAcc            0      0.00%     55.87% # Type of FU issued
system.switch_cpus1.iq.FU_type_0::SimdDiv            0      0.00%     55.87% # Type of FU issued
system.switch_cpus1.iq.FU_type_0::SimdSqrt            0      0.00%     55.87% # Type of FU issued
system.switch_cpus1.iq.FU_type_0::SimdFloatAdd     28682872      4.76%     60.62% # Type of FU issued
system.switch_cpus1.iq.FU_type_0::SimdFloatAlu            0      0.00%     60.62% # Type of FU issued
system.switch_cpus1.iq.FU_type_0::SimdFloatCmp     29624741      4.91%     65.53% # Type of FU issued
system.switch_cpus1.iq.FU_type_0::SimdFloatCvt      5707337      0.95%     66.48% # Type of FU issued
system.switch_cpus1.iq.FU_type_0::SimdFloatDiv            0      0.00%     66.48% # Type of FU issued
system.switch_cpus1.iq.FU_type_0::SimdFloatMisc            0      0.00%     66.48% # Type of FU issued
system.switch_cpus1.iq.FU_type_0::SimdFloatMult     14986189      2.48%     68.96% # Type of FU issued
system.switch_cpus1.iq.FU_type_0::SimdFloatMultAcc            0      0.00%     68.96% # Type of FU issued
system.switch_cpus1.iq.FU_type_0::SimdFloatSqrt            0      0.00%     68.96% # Type of FU issued
system.switch_cpus1.iq.FU_type_0::SimdReduceAdd            0      0.00%     68.96% # Type of FU issued
system.switch_cpus1.iq.FU_type_0::SimdReduceAlu            0      0.00%     68.96% # Type of FU issued
system.switch_cpus1.iq.FU_type_0::SimdReduceCmp            0      0.00%     68.96% # Type of FU issued
system.switch_cpus1.iq.FU_type_0::SimdFloatReduceAdd            0      0.00%     68.96% # Type of FU issued
system.switch_cpus1.iq.FU_type_0::SimdFloatReduceCmp            0      0.00%     68.96% # Type of FU issued
[...]
system.switch_cpus3.commit.numCommittedDist::0   1519813362     93.50%     93.50% # Number of insts commited each cycle
system.switch_cpus3.commit.numCommittedDist::1     36881418      2.27%     95.77% # Number of insts commited each cycle
system.switch_cpus3.commit.numCommittedDist::2      5128777      0.32%     96.09% # Number of insts commited each cycle
system.switch_cpus3.commit.numCommittedDist::3      9337810      0.57%     96.66% # Number of insts commited each cycle
system.switch_cpus3.commit.numCommittedDist::4     10112401      0.62%     97.28% # Number of insts commited each cycle
system.switch_cpus3.commit.numCommittedDist::5      3276642      0.20%     97.49% # Number of insts commited each cycle
system.switch_cpus3.commit.numCommittedDist::6      3959772      0.24%     97.73% # Number of insts commited each cycle
system.switch_cpus3.commit.numCommittedDist::7      3961956      0.24%     97.97% # Number of insts commited each cycle
system.switch_cpus3.commit.numCommittedDist::8     32939365      2.03%    100.00% # Number of insts commited each cycle
system.switch_cpus3.commit.numCommittedDist::overflows            0      0.00%    100.00% # Number of insts commited each cycle
system.switch_cpus3.commit.numCommittedDist::min_value            0                       # Number of insts commited each cycle
system.switch_cpus3.commit.numCommittedDist::max_value            8                       # Number of insts commited each cycle
system.switch_cpus3.commit.numCommittedDist::total   1625411503                       # Number of insts commited each cycle
system.switch_cpus3.commit.instsCommitted    250000000                       # Number of instructions committed
system.switch_cpus3.commit.opsCommitted     446992460                       # Number of ops (including micro ops) committed
system.switch_cpus3.commit.memRefs          107949231                       # Number of memory references committed
system.switch_cpus3.commit.loads             80236817                       # Number of loads committed
system.switch_cpus3.commit.amos                     0                       # Number of atomic instructions committed
system.switch_cpus3.commit.membars                100                       # Number of memory barriers committed
system.switch_cpus3.commit.branches          23624370                       # Number of branches committed
system.switch_cpus3.commit.vector                   0                       # Number of committed Vector instructions.
system.switch_cpus3.commit.floating         287099960                       # Number of committed floating point instructions.
system.switch_cpus3.commit.integer          242688568                       # Number of committed integer instructions.
system.switch_cpus3.commit.functionCalls       836070                       # Number of function calls committed.
system.switch_cpus3.commit.committedInstType_0::No_OpClass       267809      0.06%      0.06% # Class of committed instruction
system.switch_cpus3.commit.committedInstType_0::IntAlu    187368581     41.92%     41.98% # Class of committed instruction
system.switch_cpus3.commit.committedInstType_0::IntMult            0      0.00%     41.98% # Class of committed instruction
system.switch_cpus3.commit.committedInstType_0::IntDiv            0      0.00%     41.98% # Class of committed instruction
system.switch_cpus3.commit.committedInstType_0::FloatAdd     72687810     16.26%     58.24% # Class of committed instruction
system.switch_cpus3.commit.committedInstType_0::FloatCmp            0      0.00%     58.24% # Class of committed instruction
system.switch_cpus3.commit.committedInstType_0::FloatCvt            0      0.00%     58.24% # Class of committed instruction
system.switch_cpus3.commit.committedInstType_0::FloatMult            0      0.00%     58.24% # Class of committed instruction
system.switch_cpus3.commit.committedInstType_0::FloatMultAcc            0      0.00%     58.24% # Class of committed instruction
system.switch_cpus3.commit.committedInstType_0::FloatDiv            0      0.00%     58.24% # Class of committed instruction
system.switch_cpus3.commit.committedInstType_0::FloatMisc            0      0.00%     58.24% # Class of committed instruction
system.switch_cpus3.commit.committedInstType_0::FloatSqrt            0      0.00%     58.24% # Class of committed instruction
system.switch_cpus3.commit.committedInstType_0::SimdAdd            0      0.00%     58.24% # Class of committed instruction
system.switch_cpus3.commit.committedInstType_0::SimdAddAcc            0      0.00%     58.24% # Class of committed instruction
system.switch_cpus3.commit.committedInstType_0::SimdAlu        53360      0.01%     58.25% # Class of committed instruction
system.switch_cpus3.commit.committedInstType_0::SimdCmp            0      0.00%     58.25% # Class of committed instruction
system.switch_cpus3.commit.committedInstType_0::SimdCvt            0      0.00%     58.25% # Class of committed instruction
system.switch_cpus3.commit.committedInstType_0::SimdMisc            0      0.00%     58.25% # Class of committed instruction
system.switch_cpus3.commit.committedInstType_0::SimdMult            0      0.00%     58.25% # Class of committed instruction
system.switch_cpus3.commit.committedInstType_0::SimdMultAcc            0      0.00%     58.25% # Class of committed instruction
system.switch_cpus3.commit.committedInstType_0::SimdShift            0      0.00%     58.25% # Class of committed instruction
system.switch_cpus3.commit.committedInstType_0::SimdShiftAcc            0      0.00%     58.25% # Class of committed instruction
system.switch_cpus3.commit.committedInstType_0::SimdDiv            0      0.00%     58.25% # Class of committed instruction
system.switch_cpus3.commit.committedInstType_0::SimdSqrt            0      0.00%     58.25% # Class of committed instruction
system.switch_cpus3.commit.committedInstType_0::SimdFloatAdd     28564339      6.39%     64.64% # Class of committed instruction
system.switch_cpus3.commit.committedInstType_0::SimdFloatAlu            0      0.00%     64.64% # Class of committed instruction
system.switch_cpus3.commit.committedInstType_0::SimdFloatCmp     29489018      6.60%     71.24% # Class of committed instruction
system.switch_cpus3.commit.committedInstType_0::SimdFloatCvt      5675784      1.27%     72.51% # Class of committed instruction
system.switch_cpus3.commit.committedInstType_0::SimdFloatDiv            0      0.00%     72.51% # Class of committed instruction
system.switch_cpus3.commit.committedInstType_0::SimdFloatMisc            0      0.00%     72.51% # Class of committed instruction
system.switch_cpus3.commit.committedInstType_0::SimdFloatMult     14936528      3.34%     75.85% # Class of committed instruction
system.switch_cpus3.commit.committedInstType_0::SimdFloatMultAcc            0      0.00%     75.85% # Class of committed instruction
system.switch_cpus3.commit.committedInstType_0::SimdFloatSqrt            0      0.00%     75.85% # Class of committed instruction
system.switch_cpus3.commit.committedInstType_0::SimdReduceAdd            0      0.00%     75.85% # Class of committed instruction
system.switch_cpus3.commit.committedInstType_0::SimdReduceAlu            0      0.00%     75.85% # Class of committed instruction
system.switch_cpus3.commit.committedInstType_0::SimdReduceCmp            0      0.00%     75.85% # Class of committed instruction
system.switch_cpus3.commit.committedInstType_0::SimdFloatReduceAdd            0      0.00%     75.85% # Class of committed instruction
system.switch_cpus3.commit.committedInstType_0::SimdFloatReduceCmp            0      0.00%     75.85% # Class of committed instruction
system.switch_cpus3.commit.committedInstType_0::SimdAes            0      0.00%     75.85% # Class of committed instruction
system.switch_cpus3.commit.committedInstType_0::SimdAesMix            0      0.00%     75.85% # Class of committed instruction
system.switch_cpus3.commit.committedInstType_0::SimdSha1Hash            0      0.00%     75.85% # Class of committed instruction
system.switch_cpus3.commit.committedInstType_0::SimdSha1Hash2            0      0.00%     75.85% # Class of committed instruction
system.switch_cpus3.commit.committedInstType_0::SimdSha256Hash            0      0.00%     75.85% # Class of committed instruction
system.switch_cpus3.commit.committedInstType_0::SimdSha256Hash2            0      0.00%     75.85% # Class of committed instruction
system.switch_cpus3.commit.committedInstType_0::SimdShaSigma2            0      0.00%     75.85% # Class of committed instruction
system.switch_cpus3.commit.committedInstType_0::SimdShaSigma3            0      0.00%     75.85% # Class of committed instruction
system.switch_cpus3.commit.committedInstType_0::SimdPredAlu            0      0.00%     75.85% # Class of committed instruction
system.switch_cpus3.commit.committedInstType_0::MemRead     16946955      3.79%     79.64% # Class of committed instruction
system.switch_cpus3.commit.committedInstType_0::MemWrite      7929919      1.77%     81.42% # Class of committed instruction
system.switch_cpus3.commit.committedInstType_0::FloatMemRead     63289862     14.16%     95.57% # Class of committed instruction
system.switch_cpus3.commit.committedInstType_0::FloatMemWrite     19782495      4.43%    100.00% # Class of committed instruction
system.switch_cpus3.commit.committedInstType_0::IprAccess            0      0.00%    100.00% # Class of committed instruction
system.switch_cpus3.commit.committedInstType_0::InstPrefetch            0      0.00%    100.00% # Class of committed instruction
system.switch_cpus3.commit.committedInstType_0::total    446992460                       # Class of committed instruction
system.switch_cpus3.commit.commitEligibleSamples     32939365                       # number cycles where commit BW limit reached
system.switch_cpus3.decode.idleCycles        15158681                       # Number of cycles decode is idle
system.switch_cpus3.decode.blockedCycles   1544765230                       # Number of cycles decode is blocked
system.switch_cpus3.decode.runCycles         53093305                       # Number of cycles decode is running
system.switch_cpus3.decode.unblockCycles     29211155                       # Number of cycles decode is unblocking
system.switch_cpus3.decode.squashCycles       1688335                       # Number of cycles decode is squashing
system.switch_cpus3.decode.branchResolved     17699377                       # Number of times decode resolved a  branch
system.switch_cpus3.decode.branchMispred          392                       # Number of times decode detected a branch misprediction
system.switch_cpus3.decode.decodedInsts     625371169                       # Number of instructions handled by decode
system.switch_cpus3.decode.squashedInsts         2409                       # Number of squashed instructions handled by decode
system.switch_cpus3.dtb.rdAccesses          124843260                       # TLB accesses on read requests
system.switch_cpus3.dtb.wrAccesses           65094550                       # TLB accesses on write requests
system.switch_cpus3.dtb.rdMisses              2728166                       # TLB misses on read requests
system.switch_cpus3.dtb.wrMisses               329638                       # TLB misses on write requests
system.switch_cpus3.dtb.walker.power_state.pwrStateResidencyTicks::UNDEFINED 18766601677269                       # Cumulative time (in ticks) in various power states
system.switch_cpus3.fetch.icacheStallCycles       845059                       # Number of cycles fetch is stalled on an Icache miss
system.switch_cpus3.fetch.insts             359434112                       # Number of instructions fetch has processed
system.switch_cpus3.fetch.branches           36768660                       # Number of branches that fetch encountered
system.switch_cpus3.fetch.predictedBranches     21715885                       # Number of branches that fetch has predicted taken
system.switch_cpus3.fetch.cycles           1641380697                       # Number of cycles fetch has run and was not squashing or blocked
system.switch_cpus3.fetch.squashCycles        3377426                       # Number of cycles fetch has spent squashing
system.switch_cpus3.fetch.miscStallCycles          111                       # Number of cycles fetch has spent waiting on interrupts,or bad addresses, or out of MSHRs
system.switch_cpus3.fetch.pendingTrapStallCycles         2129                       # Number of stall cycles due to pending traps
system.switch_cpus3.fetch.cacheLines         46311852                       # Number of cache lines fetched
system.switch_cpus3.fetch.icacheSquashes          192                       # Number of outstanding Icache misses that were squashed
system.switch_cpus3.fetch.nisnDist::samples   1643916709                       # Number of instructions fetched each cycle (Total)
system.switch_cpus3.fetch.nisnDist::mean     0.417928                       # Number of instructions fetched each cycle (Total)
system.switch_cpus3.fetch.nisnDist::stdev     1.657180                       # Number of instructions fetched each cycle (Total)
system.switch_cpus3.fetch.nisnDist::underflows            0      0.00%      0.00% # Number of instructions fetched each cycle (Total)
system.switch_cpus3.fetch.nisnDist::0      1529638008     93.05%     93.05% # Number of instructions fetched each cycle (Total)
system.switch_cpus3.fetch.nisnDist::1         4889844      0.30%     93.35% # Number of instructions fetched each cycle (Total)
system.switch_cpus3.fetch.nisnDist::2        12837297      0.78%     94.13% # Number of instructions fetched each cycle (Total)
system.switch_cpus3.fetch.nisnDist::3         7574188      0.46%     94.59% # Number of instructions fetched each cycle (Total)
system.switch_cpus3.fetch.nisnDist::4         6654284      0.40%     94.99% # Number of instructions fetched each cycle (Total)
system.switch_cpus3.fetch.nisnDist::5        10193678      0.62%     95.61% # Number of instructions fetched each cycle (Total)
system.switch_cpus3.fetch.nisnDist::6         6377182      0.39%     96.00% # Number of instructions fetched each cycle (Total)
system.switch_cpus3.fetch.nisnDist::7         8113831      0.49%     96.49% # Number of instructions fetched each cycle (Total)
system.switch_cpus3.fetch.nisnDist::8        57638397      3.51%    100.00% # Number of instructions fetched each cycle (Total)
system.switch_cpus3.fetch.nisnDist::overflows            0      0.00%    100.00% # Number of instructions fetched each cycle (Total)
system.switch_cpus3.fetch.nisnDist::min_value            0                       # Number of instructions fetched each cycle (Total)
system.switch_cpus3.fetch.nisnDist::max_value            8                       # Number of instructions fetched each cycle (Total)
system.switch_cpus3.fetch.nisnDist::total   1643916709                       # Number of instructions fetched each cycle (Total)
system.switch_cpus3.fetch.branchRate         0.022366                       # Number of branch fetches per cycle
system.switch_cpus3.fetch.rate               0.218639                       # Number of inst fetches per cycle
system.switch_cpus3.itb.rdAccesses                  0                       # TLB accesses on read requests
system.switch_cpus3.itb.wrAccesses           46312047                       # TLB accesses on write requests
system.switch_cpus3.itb.rdMisses                    0                       # TLB misses on read requests
system.switch_cpus3.itb.wrMisses                  224                       # TLB misses on write requests
system.switch_cpus3.itb.walker.power_state.pwrStateResidencyTicks::UNDEFINED 18766601677269                       # Cumulative time (in ticks) in various power states
system.switch_cpus3.lsq0.forwLoads            1088830                       # Number of loads that had data forwarded from stores
system.switch_cpus3.lsq0.squashedLoads       35923799                       # Number of loads squashed
system.switch_cpus3.lsq0.ignoredResponses         1401                       # Number of memory responses ignored because the instruction is squashed
system.switch_cpus3.lsq0.memOrderViolation         7883                       # Number of memory ordering violations
system.switch_cpus3.lsq0.squashedStores      38936799                       # Number of stores squashed
system.switch_cpus3.lsq0.rescheduledLoads      8178909                       # Number of loads that were rescheduled
system.switch_cpus3.lsq0.blockedByCache          6747                       # Number of times an access to memory failed due to the cache being blocked
system.switch_cpus3.power_state.pwrStateResidencyTicks::OFF 547439436243                       # Cumulative time (in ticks) in various power states
system.switch_cpus3.rename.squashCycles       1688335                       # Number of cycles rename is squashing
system.switch_cpus3.rename.idleCycles        26691485                       # Number of cycles rename is idle
system.switch_cpus3.rename.blockCycles      907058901                       # Number of cycles rename is blocking
system.switch_cpus3.rename.serializeStallCycles            0                       # count of cycles rename stalledfor serializing inst
system.switch_cpus3.rename.runCycles         68905508                       # Number of cycles rename is running
system.switch_cpus3.rename.unblockCycles    639572477                       # Number of cycles rename is unblocking
system.switch_cpus3.rename.renamedInsts     611390542                       # Number of instructions processed by rename
system.switch_cpus3.rename.ROBFullEvents      8513341                       # Number of times rename has blocked due to ROB full
system.switch_cpus3.rename.IQFullEvents     152037013                       # Number of times rename has blocked due to IQ full
system.switch_cpus3.rename.LQFullEvents     295779787                       # Number of times rename has blocked due to LQ full
system.switch_cpus3.rename.SQFullEvents     305854811                       # Number of times rename has blocked due to SQ full
system.switch_cpus3.rename.renamedOperands    624292549                       # Number of destination operands rename has renamed
system.switch_cpus3.rename.lookups         1460459284                       # Number of register rename lookups that rename has made
system.switch_cpus3.rename.intLookups       606377729                       # Number of integer rename lookups
system.switch_cpus3.rename.fpLookups        384958498                       # Number of floating rename lookups
system.switch_cpus3.rename.committedMaps    472517900                       # Number of HB maps that are committed
system.switch_cpus3.rename.undoneMaps       151774410                       # Number of HB maps that are undone due to squashing
system.switch_cpus3.rename.serializing              0                       # count of serializing insts renamed
system.switch_cpus3.rename.tempSerializing            0                       # count of temporary serializing insts renamed
system.switch_cpus3.rename.skidInsts        163649837                       # count of insts added to the skid buffer
system.switch_cpus3.rob.reads              2160273920                       # The number of ROB reads
system.switch_cpus3.rob.writes             1182133899                       # The number of ROB writes
system.switch_cpus3.thread0.numInsts        250000000                       # Number of Instructions committed
system.switch_cpus3.thread0.numOps          446992460                       # Number of Ops committed
system.switch_cpus3.thread0.numMemRefs              0                       # Number of Memory References
system.voltage_domain.voltage                       1                       # Voltage in Volts

---------- End Simulation Statistics   ----------
