
---------- Begin Simulation Statistics ----------
final_tick                               18763007084127                       # Number of ticks from beginning of simulation (restored from checkpoints and never reset)
host_inst_rate                                  54747                       # Simulator instruction rate (inst/s)
host_mem_usage                               17865360                       # Number of bytes of host memory used
host_op_rate                                    97733                       # Simulator op (including micro ops) rate (op/s)
host_seconds                                 17611.19                       # Real time elapsed on the host
host_tick_rate                               30880647                       # Simulator tick rate (ticks/s)
sim_freq                                 1000000000000                       # Frequency of simulated ticks
sim_insts                                   964161229                       # Number of instructions simulated
sim_ops                                    1721200993                       # Number of ops (including micro ops) simulated
sim_seconds                                  0.543845                       # Number of seconds simulated
sim_ticks                                543844840104                       # Number of ticks simulated
system.cpu0.Branches                                1                       # Number of branches fetched
system.cpu0.committedInsts                         13                       # Number of instructions committed
system.cpu0.committedOps                           27                       # Number of ops (including micro ops) committed
system.cpu0.idle_fraction                           0                       # Percentage of idle cycles
system.cpu0.l2bus.snoop_filter.hit_multi_requests           16                       # Number of requests hitting in the snoop filter with multiple (>1) holders of the requested data.
system.cpu0.l2bus.snoop_filter.hit_multi_snoops            0                       # Number of snoops hitting in the snoop filter with multiple (>1) holders of the requested data.
system.cpu0.l2bus.snoop_filter.hit_single_requests     12220538                       # Number of requests hitting in the snoop filter with a single holder of the requested data.
system.cpu0.l2bus.snoop_filter.hit_single_snoops         3572                       # Number of snoops hitting in the snoop filter with a single holder of the requested data.
system.cpu0.l2bus.snoop_filter.tot_requests     24438088                       # Total number of requests made to the snoop filter.
system.cpu0.l2bus.snoop_filter.tot_snoops         3572                       # Total number of snoops made to the snoop filter.
system.cpu0.mmucache.mmubus.snoop_filter.hit_multi_requests            0                       # Number of requests hitting in the snoop filter with multiple (>1) holders of the requested data.
system.cpu0.mmucache.mmubus.snoop_filter.hit_multi_snoops            0                       # Number of snoops hitting in the snoop filter with multiple (>1) holders of the requested data.
system.cpu0.mmucache.mmubus.snoop_filter.hit_single_requests            0                       # Number of requests hitting in the snoop filter with a single holder of the requested data.
system.cpu0.mmucache.mmubus.snoop_filter.hit_single_snoops            0                       # Number of snoops hitting in the snoop filter with a single holder of the requested data.
system.cpu0.mmucache.mmubus.snoop_filter.tot_requests            0                       # Total number of requests made to the snoop filter.
system.cpu0.mmucache.mmubus.snoop_filter.tot_snoops            0                       # Total number of snoops made to the snoop filter.
system.cpu0.not_idle_fraction                       1                       # Percentage of non-idle cycles
system.cpu0.numCycles                              33                       # number of cpu cycles simulated
system.cpu0.numWorkItemsCompleted                   0                       # number of work items this cpu completed
system.cpu0.numWorkItemsStarted                     0                       # number of work items this cpu started
system.cpu0.num_busy_cycles                        33                       # Number of busy cycles
system.cpu0.num_cc_register_reads                   5                       # number of times the CC registers were read
system.cpu0.num_conditional_control_insts            1                       # number of instructions that are conditional controls
system.cpu0.num_fp_alu_accesses                    24                       # Number of float alu accesses
system.cpu0.num_fp_insts                           24                       # number of float instructions
system.cpu0.num_fp_register_reads                  28                       # number of times the floating registers were read
system.cpu0.num_fp_register_writes                 24                       # number of times the floating registers were written
system.cpu0.num_func_calls                          0                       # number of times a function call or return occured
system.cpu0.num_idle_cycles                         0                       # Number of idle cycles
system.cpu0.num_int_alu_accesses                    7                       # Number of integer alu accesses
system.cpu0.num_int_insts                           7                       # number of integer instructions
system.cpu0.num_int_register_reads                 16                       # number of times the integer registers were read
system.cpu0.num_int_register_writes                 2                       # number of times the integer registers were written
system.cpu0.num_load_insts                          4                       # Number of load instructions
system.cpu0.num_mem_refs                            4                       # number of memory refs
system.cpu0.num_store_insts                         0                       # Number of store instructions
system.cpu0.num_vec_alu_accesses                    0                       # Number of vector alu accesses
system.cpu0.num_vec_insts                           0                       # number of vector instructions
system.cpu0.num_vec_register_reads                  0                       # number of times the vector registers were read
system.cpu0.num_vec_register_writes                 0                       # number of times the vector registers were written
system.cpu0.op_class::No_OpClass                    0      0.00%      0.00% # Class of executed instruction
system.cpu0.op_class::IntAlu                       11     40.74%     40.74% # Class of executed instruction
system.cpu0.op_class::IntMult                       0      0.00%     40.74% # Class of executed instruction
system.cpu0.op_class::IntDiv                        0      0.00%     40.74% # Class of executed instruction
system.cpu0.op_class::FloatAdd                      8     29.63%     70.37% # Class of executed instruction
system.cpu0.op_class::FloatCmp                      0      0.00%     70.37% # Class of executed instruction
system.cpu0.op_class::FloatCvt                      0      0.00%     70.37% # Class of executed instruction
system.cpu0.op_class::FloatMult                     0      0.00%     70.37% # Class of executed instruction
system.cpu0.op_class::FloatMultAcc                  0      0.00%     70.37% # Class of executed instruction
system.cpu0.op_class::FloatDiv                      0      0.00%     70.37% # Class of executed instruction
system.cpu0.op_class::FloatMisc                     0      0.00%     70.37% # Class of executed instruction
system.cpu0.op_class::FloatSqrt                     0      0.00%     70.37% # Class of executed instruction
system.cpu0.op_class::SimdAdd                       0      0.00%     70.37% # Class of executed instruction
system.cpu0.op_class::SimdAddAcc                    0      0.00%     70.37% # Class of executed instruction
system.cpu0.op_class::SimdAlu                       0      0.00%     70.37% # Class of executed instruction
system.cpu0.op_class::SimdCmp                       0      0.00%     70.37% # Class of executed instruction
system.cpu0.op_class::SimdCvt                       0      0.00%     70.37% # Class of executed instruction
system.cpu0.op_class::SimdMisc                      0      0.00%     70.37% # Class of executed instruction
system.cpu0.op_class::SimdMult                      0      0.00%     70.37% # Class of executed instruction
system.cpu0.op_class::SimdMultAcc                   0      0.00%     70.37% # Class of executed instruction
system.cpu0.op_class::SimdShift                     0      0.00%     70.37% # Class of executed instruction
system.cpu0.op_class::SimdShiftAcc                  0      0.00%     70.37% # Class of executed instruction
system.cpu0.op_class::SimdDiv                       0      0.00%     70.37% # Class of executed instruction
system.cpu0.op_class::SimdSqrt                      0      0.00%     70.37% # Class of executed instruction
system.cpu0.op_class::SimdFloatAdd                  0      0.00%     70.37% # Class of executed instruction
system.cpu0.op_class::SimdFloatAlu                  0      0.00%     70.37% # Class of executed instruction
system.cpu0.op_class::SimdFloatCmp                  4     14.81%     85.19% # Class of executed instruction
system.cpu0.op_class::SimdFloatCvt                  0      0.00%     85.19% # Class of executed instruction
system.cpu0.op_class::SimdFloatDiv                  0      0.00%     85.19% # Class of executed instruction
system.cpu0.op_class::SimdFloatMisc                 0      0.00%     85.19% # Class of executed instruction
system.cpu0.op_class::SimdFloatMult                 0      0.00%     85.19% # Class of executed instruction
system.cpu0.op_class::SimdFloatMultAcc              0      0.00%     85.19% # Class of executed instruction
system.cpu0.op_class::SimdFloatSqrt                 0      0.00%     85.19% # Class of executed instruction
system.cpu0.op_class::SimdReduceAdd                 0      0.00%     85.19% # Class of executed instruction
system.cpu0.op_class::SimdReduceAlu                 0      0.00%     85.19% # Class of executed instruction
system.cpu0.op_class::SimdReduceCmp                 0      0.00%     85.19% # Class of executed instruction
system.cpu0.op_class::SimdFloatReduceAdd            0      0.00%     85.19% # Class of executed instruction
system.cpu0.op_class::SimdFloatReduceCmp            0      0.00%     85.19% # Class of executed instruction
system.cpu0.op_class::SimdAes                       0      0.00%     85.19% # Class of executed instruction
system.cpu0.op_class::SimdAesMix                    0      0.00%     85.19% # Class of executed instruction
system.cpu0.op_class::SimdSha1Hash                  0      0.00%     85.19% # Class of executed instruction
system.cpu0.op_class::SimdSha1Hash2                 0      0.00%     85.19% # Class of executed instruction
system.cpu0.op_class::SimdSha256Hash                0      0.00%     85.19% # Class of executed instruction
system.cpu0.op_class::SimdSha256Hash2               0      0.00%     85.19% # Class of executed instruction
system.cpu0.op_class::SimdShaSigma2                 0      0.00%     85.19% # Class of executed instruction
system.cpu0.op_class::SimdShaSigma3                 0      0.00%     85.19% # Class of executed instruction
system.cpu0.op_class::SimdPredAlu                   0      0.00%     85.19% # Class of executed instruction
system.cpu0.op_class::MemRead                       0      0.00%     85.19% # Class of executed instruction
system.cpu0.op_class::MemWrite                      0      0.00%     85.19% # Class of executed instruction
system.cpu0.op_class::FloatMemRead                  4     14.81%    100.00% # Class of executed instruction
system.cpu0.op_class::FloatMemWrite                 0      0.00%    100.00% # Class of executed instruction
system.cpu0.op_class::IprAccess                     0      0.00%    100.00% # Class of executed instruction
system.cpu0.op_class::InstPrefetch                  0      0.00%    100.00% # Class of executed instruction
system.cpu0.op_class::total                        27                       # Class of executed instruction
system.cpu0.workload.numSyscalls                    0                       # Number of system calls
system.cpu1.Branches                                1                       # Number of branches fetched
system.cpu1.committedInsts                         16                       # Number of instructions committed
system.cpu1.committedOps                           23                       # Number of ops (including micro ops) committed
system.cpu1.idle_fraction                           0                       # Percentage of idle cycles
system.cpu1.l2bus.snoop_filter.hit_multi_requests           13                       # Number of requests hitting in the snoop filter with multiple (>1) holders of the requested data.
system.cpu1.l2bus.snoop_filter.hit_multi_snoops            0                       # Number of snoops hitting in the snoop filter with multiple (>1) holders of the requested data.
system.cpu1.l2bus.snoop_filter.hit_single_requests     12042243                       # Number of requests hitting in the snoop filter with a single holder of the requested data.
system.cpu1.l2bus.snoop_filter.hit_single_snoops      5247527                       # Number of snoops hitting in the snoop filter with a single holder of the requested data.
system.cpu1.l2bus.snoop_filter.tot_requests     24080396                       # Total number of requests made to the snoop filter.
system.cpu1.l2bus.snoop_filter.tot_snoops      5247527                       # Total number of snoops made to the snoop filter.
system.cpu1.mmucache.mmubus.snoop_filter.hit_multi_requests            0                       # Number of requests hitting in the snoop filter with multiple (>1) holders of the requested data.
system.cpu1.mmucache.mmubus.snoop_filter.hit_multi_snoops            0                       # Number of snoops hitting in the snoop filter with multiple (>1) holders of the requested data.
system.cpu1.mmucache.mmubus.snoop_filter.hit_single_requests            0                       # Number of requests hitting in the snoop filter with a single holder of the requested data.
system.cpu1.mmucache.mmubus.snoop_filter.hit_single_snoops            0                       # Number of snoops hitting in the snoop filter with a single holder of the requested data.
system.cpu1.mmucache.mmubus.snoop_filter.tot_requests            0                       # Total number of requests made to the snoop filter.
system.cpu1.mmucache.mmubus.snoop_filter.tot_snoops            0                       # Total number of snoops made to the snoop filter.
system.cpu1.not_idle_fraction                       1                       # Percentage of non-idle cycles
system.cpu1.numCycles                              31                       # number of cpu cycles simulated
system.cpu1.numWorkItemsCompleted                   0                       # number of work items this cpu completed
system.cpu1.numWorkItemsStarted                     0                       # number of work items this cpu started
system.cpu1.num_busy_cycles                        31                       # Number of busy cycles
system.cpu1.num_cc_register_reads                   7                       # number of times the CC registers were read
system.cpu1.num_cc_register_writes                  2                       # number of times the CC registers were written
system.cpu1.num_conditional_control_insts            1                       # number of instructions that are conditional controls
system.cpu1.num_fp_alu_accesses                    20                       # Number of float alu accesses
system.cpu1.num_fp_insts                           20                       # number of float instructions
system.cpu1.num_fp_register_reads                  43                       # number of times the floating registers were read
system.cpu1.num_fp_register_writes                 19                       # number of times the floating registers were written
system.cpu1.num_func_calls                          0                       # number of times a function call or return occured
system.cpu1.num_idle_cycles                         0                       # Number of idle cycles
system.cpu1.num_int_alu_accesses                    5                       # Number of integer alu accesses
system.cpu1.num_int_insts                           5                       # number of integer instructions
system.cpu1.num_int_register_reads                 10                       # number of times the integer registers were read
system.cpu1.num_int_register_writes                 2                       # number of times the integer registers were written
system.cpu1.num_load_insts                          2                       # Number of load instructions
system.cpu1.num_mem_refs                            2                       # number of memory refs
system.cpu1.num_store_insts                         0                       # Number of store instructions
system.cpu1.num_vec_alu_accesses                    0                       # Number of vector alu accesses
system.cpu1.num_vec_insts                           0                       # number of vector instructions
system.cpu1.num_vec_register_reads                  0                       # number of times the vector registers were read
system.cpu1.num_vec_register_writes                 0                       # number of times the vector registers were written
system.cpu1.op_class::No_OpClass                    0      0.00%      0.00% # Class of executed instruction
system.cpu1.op_class::IntAlu                        7     30.43%     30.43% # Class of executed instruction
system.cpu1.op_class::IntMult                       0      0.00%     30.43% # Class of executed instruction
system.cpu1.op_class::IntDiv                        0      0.00%     30.43% # Class of executed instruction
system.cpu1.op_class::FloatAdd                      2      8.70%     39.13% # Class of executed instruction
system.cpu1.op_class::FloatCmp                      0      0.00%     39.13% # Class of executed instruction
system.cpu1.op_class::FloatCvt                      0      0.00%     39.13% # Class of executed instruction
system.cpu1.op_class::FloatMult                     0      0.00%     39.13% # Class of executed instruction
system.cpu1.op_class::FloatMultAcc                  0      0.00%     39.13% # Class of executed instruction
system.cpu1.op_class::FloatDiv                      0      0.00%     39.13% # Class of executed instruction
system.cpu1.op_class::FloatMisc                     0      0.00%     39.13% # Class of executed instruction
system.cpu1.op_class::FloatSqrt                     0      0.00%     39.13% # Class of executed instruction
system.cpu1.op_class::SimdAdd                       0      0.00%     39.13% # Class of executed instruction
system.cpu1.op_class::SimdAddAcc                    0      0.00%     39.13% # Class of executed instruction
system.cpu1.op_class::SimdAlu                       0      0.00%     39.13% # Class of executed instruction
system.cpu1.op_class::SimdCmp                       0      0.00%     39.13% # Class of executed instruction
system.cpu1.op_class::SimdCvt                       0      0.00%     39.13% # Class of executed instruction
system.cpu1.op_class::SimdMisc                      0      0.00%     39.13% # Class of executed instruction
system.cpu1.op_class::SimdMult                      0      0.00%     39.13% # Class of executed instruction
system.cpu1.op_class::SimdMultAcc                   0      0.00%     39.13% # Class of executed instruction
system.cpu1.op_class::SimdShift                     0      0.00%     39.13% # Class of executed instruction
system.cpu1.op_class::SimdShiftAcc                  0      0.00%     39.13% # Class of executed instruction
system.cpu1.op_class::SimdDiv                       0      0.00%     39.13% # Class of executed instruction
system.cpu1.op_class::SimdSqrt                      0      0.00%     39.13% # Class of executed instruction
system.cpu1.op_class::SimdFloatAdd                  5     21.74%     60.87% # Class of executed instruction
system.cpu1.op_class::SimdFloatAlu                  0      0.00%     60.87% # Class of executed instruction
system.cpu1.op_class::SimdFloatCmp                  1      4.35%     65.22% # Class of executed instruction
system.cpu1.op_class::SimdFloatCvt                  1      4.35%     69.57% # Class of executed instruction
system.cpu1.op_class::SimdFloatDiv                  0      0.00%     69.57% # Class of executed instruction
system.cpu1.op_class::SimdFloatMisc                 0      0.00%     69.57% # Class of executed instruction
system.cpu1.op_class::SimdFloatMult                 5     21.74%     91.30% # Class of executed instruction
system.cpu1.op_class::SimdFloatMultAcc              0      0.00%     91.30% # Class of executed instruction
system.cpu1.op_class::SimdFloatSqrt                 0      0.00%     91.30% # Class of executed instruction
system.cpu1.op_class::SimdReduceAdd                 0      0.00%     91.30% # Class of executed instruction
system.cpu1.op_class::SimdReduceAlu                 0      0.00%     91.30% # Class of executed instruction
system.cpu1.op_class::SimdReduceCmp                 0      0.00%     91.30% # Class of executed instruction
system.cpu1.op_class::SimdFloatReduceAdd            0      0.00%     91.30% # Class of executed instruction
system.cpu1.op_class::SimdFloatReduceCmp            0      0.00%     91.30% # Class of executed instruction
system.cpu1.op_class::SimdAes                       0      0.00%     91.30% # Class of executed instruction
system.cpu1.op_class::SimdAesMix                    0      0.00%     91.30% # Class of executed instruction
system.cpu1.op_class::SimdSha1Hash                  0      0.00%     91.30% # Class of executed instruction
system.cpu1.op_class::SimdSha1Hash2                 0      0.00%     91.30% # Class of executed instruction
system.cpu1.op_class::SimdSha256Hash                0      0.00%     91.30% # Class of executed instruction
system.cpu1.op_class::SimdSha256Hash2               0      0.00%     91.30% # Class of executed instruction
system.cpu1.op_class::SimdShaSigma2                 0      0.00%     91.30% # Class of executed instruction
system.cpu1.op_class::SimdShaSigma3                 0      0.00%     91.30% # Class of executed instruction
system.cpu1.op_class::SimdPredAlu                   0      0.00%     91.30% # Class of executed instruction
system.cpu1.op_class::MemRead                       0      0.00%     91.30% # Class of executed instruction
system.cpu1.op_class::MemWrite                      0      0.00%     91.30% # Class of executed instruction
system.cpu1.op_class::FloatMemRead                  2      8.70%    100.00% # Class of executed instruction
system.cpu1.op_class::FloatMemWrite                 0      0.00%    100.00% # Class of executed instruction
system.cpu1.op_class::IprAccess                     0      0.00%    100.00% # Class of executed instruction
system.cpu1.op_class::InstPrefetch                  0      0.00%    100.00% # Class of executed instruction
system.cpu1.op_class::total                        23                       # Class of executed instruction
system.cpu1.workload.numSyscalls                    0                       # Number of system calls
system.cpu2.Branches                                1                       # Number of branches fetched
system.cpu2.committedInsts                         13                       # Number of instructions committed
system.cpu2.committedOps                           27                       # Number of ops (including micro ops) committed
system.cpu2.idle_fraction                           0                       # Percentage of idle cycles
system.cpu2.l2bus.snoop_filter.hit_multi_requests           18                       # Number of requests hitting in the snoop filter with multiple (>1) holders of the requested data.
system.cpu2.l2bus.snoop_filter.hit_multi_snoops            0                       # Number of snoops hitting in the snoop filter with multiple (>1) holders of the requested data.
system.cpu2.l2bus.snoop_filter.hit_single_requests     12235002                       # Number of requests hitting in the snoop filter with a single holder of the requested data.
system.cpu2.l2bus.snoop_filter.hit_single_snoops         3479                       # Number of snoops hitting in the snoop filter with a single holder of the requested data.
system.cpu2.l2bus.snoop_filter.tot_requests     24467232                       # Total number of requests made to the snoop filter.
system.cpu2.l2bus.snoop_filter.tot_snoops         3479                       # Total number of snoops made to the snoop filter.
system.cpu2.mmucache.mmubus.snoop_filter.hit_multi_requests            0                       # Number of requests hitting in the snoop filter with multiple (>1) holders of the requested data.
system.cpu2.mmucache.mmubus.snoop_filter.hit_multi_snoops            0                       # Number of snoops hitting in the snoop filter with multiple (>1) holders of the requested data.
system.cpu2.mmucache.mmubus.snoop_filter.hit_single_requests            0                       # Number of requests hitting in the snoop filter with a single holder of the requested data.
system.cpu2.mmucache.mmubus.snoop_filter.hit_single_snoops            0                       # Number of snoops hitting in the snoop filter with a single holder of the requested data.
system.cpu2.mmucache.mmubus.snoop_filter.tot_requests            0                       # Total number of requests made to the snoop filter.
system.cpu2.mmucache.mmubus.snoop_filter.tot_snoops            0                       # Total number of snoops made to the snoop filter.
system.cpu2.not_idle_fraction                       1                       # Percentage of non-idle cycles
system.cpu2.numCycles                              33                       # number of cpu cycles simulated
system.cpu2.numWorkItemsCompleted                   0                       # number of work items this cpu completed
system.cpu2.numWorkItemsStarted                     0                       # number of work items this cpu started
system.cpu2.num_busy_cycles                        33                       # Number of busy cycles
system.cpu2.num_cc_register_reads                   5                       # number of times the CC registers were read
system.cpu2.num_conditional_control_insts            1                       # number of instructions that are conditional controls
system.cpu2.num_fp_alu_accesses                    24                       # Number of float alu accesses
system.cpu2.num_fp_insts                           24                       # number of float instructions
system.cpu2.num_fp_register_reads                  28                       # number of times the floating registers were read
system.cpu2.num_fp_register_writes                 24                       # number of times the floating registers were written
system.cpu2.num_func_calls                          0                       # number of times a function call or return occured
system.cpu2.num_idle_cycles                         0                       # Number of idle cycles
system.cpu2.num_int_alu_accesses                    7                       # Number of integer alu accesses
system.cpu2.num_int_insts                           7                       # number of integer instructions
system.cpu2.num_int_register_reads                 16                       # number of times the integer registers were read
system.cpu2.num_int_register_writes                 2                       # number of times the integer registers were written
system.cpu2.num_load_insts                          4                       # Number of load instructions
system.cpu2.num_mem_refs                            4                       # number of memory refs
system.cpu2.num_store_insts                         0                       # Number of store instructions
system.cpu2.num_vec_alu_accesses                    0                       # Number of vector alu accesses
system.cpu2.num_vec_insts                           0                       # number of vector instructions
system.cpu2.num_vec_register_reads                  0                       # number of times the vector registers were read
system.cpu2.num_vec_register_writes                 0                       # number of times the vector registers were written
system.cpu2.op_class::No_OpClass                    0      0.00%      0.00% # Class of executed instruction
system.cpu2.op_class::IntAlu                       11     40.74%     40.74% # Class of executed instruction
system.cpu2.op_class::IntMult                       0      0.00%     40.74% # Class of executed instruction
system.cpu2.op_class::IntDiv                        0      0.00%     40.74% # Class of executed instruction
system.cpu2.op_class::FloatAdd                      8     29.63%     70.37% # Class of executed instruction
system.cpu2.op_class::FloatCmp                      0      0.00%     70.37% # Class of executed instruction
system.cpu2.op_class::FloatCvt                      0      0.00%     70.37% # Class of executed instruction
system.cpu2.op_class::FloatMult                     0      0.00%     70.37% # Class of executed instruction
system.cpu2.op_class::FloatMultAcc                  0      0.00%     70.37% # Class of executed instruction
system.cpu2.op_class::FloatDiv                      0      0.00%     70.37% # Class of executed instruction
system.cpu2.op_class::FloatMisc                     0      0.00%     70.37% # Class of executed instruction
system.cpu2.op_class::FloatSqrt                     0      0.00%     70.37% # Class of executed instruction
system.cpu2.op_class::SimdAdd                       0      0.00%     70.37% # Class of executed instruction
system.cpu2.op_class::SimdAddAcc                    0      0.00%     70.37% # Class of executed instruction
system.cpu2.op_class::SimdAlu                       0      0.00%     70.37% # Class of executed instruction
system.cpu2.op_class::SimdCmp                       0      0.00%     70.37% # Class of executed instruction
system.cpu2.op_class::SimdCvt                       0      0.00%     70.37% # Class of executed instruction
system.cpu2.op_class::SimdMisc                      0      0.00%     70.37% # Class of executed instruction
system.cpu2.op_class::SimdMult                      0      0.00%     70.37% # Class of executed instruction
system.cpu2.op_class::SimdMultAcc                   0      0.00%     70.37% # Class of executed instruction
system.cpu2.op_class::SimdShift                     0      0.00%     70.37% # Class of executed instruction
system.cpu2.op_class::SimdShiftAcc                  0      0.00%     70.37% # Class of executed instruction
system.cpu2.op_class::SimdDiv                       0      0.00%     70.37% # Class of executed instruction
system.cpu2.op_class::SimdSqrt                      0      0.00%     70.37% # Class of executed instruction
system.cpu2.op_class::SimdFloatAdd                  0      0.00%     70.37% # Class of executed instruction
system.cpu2.op_class::SimdFloatAlu                  0      0.00%     70.37% # Class of executed instruction
system.cpu2.op_class::SimdFloatCmp                  4     14.81%     85.19% # Class of executed instruction
system.cpu2.op_class::SimdFloatCvt                  0      0.00%     85.19% # Class of executed instruction
system.cpu2.op_class::SimdFloatDiv                  0      0.00%     85.19% # Class of executed instruction
system.cpu2.op_class::SimdFloatMisc                 0      0.00%     85.19% # Class of executed instruction
system.cpu2.op_class::SimdFloatMult                 0      0.00%     85.19% # Class of executed instruction
system.cpu2.op_class::SimdFloatMultAcc              0      0.00%     85.19% # Class of executed instruction
system.cpu2.op_class::SimdFloatSqrt                 0      0.00%     85.19% # Class of executed instruction
system.cpu2.op_class::SimdReduceAdd                 0      0.00%     85.19% # Class of executed instruction
system.cpu2.op_class::SimdReduceAlu                 0      0.00%     85.19% # Class of executed instruction
system.cpu2.op_class::SimdReduceCmp                 0      0.00%     85.19% # Class of executed instruction
system.cpu2.op_class::SimdFloatReduceAdd            0      0.00%     85.19% # Class of executed instruction
system.cpu2.op_class::SimdFloatReduceCmp            0      0.00%     85.19% # Class of executed instruction
system.cpu2.op_class::SimdAes                       0      0.00%     85.19% # Class of executed instruction
system.cpu2.op_class::SimdAesMix                    0      0.00%     85.19% # Class of executed instruction
system.cpu2.op_class::SimdSha1Hash                  0      0.00%     85.19% # Class of executed instruction
system.cpu2.op_class::SimdSha1Hash2                 0      0.00%     85.19% # Class of executed instruction
system.cpu2.op_class::SimdSha256Hash                0      0.00%     85.19% # Class of executed instruction
system.cpu2.op_class::SimdSha256Hash2               0      0.00%     85.19% # Class of executed instruction
system.cpu2.op_class::SimdShaSigma2                 0      0.00%     85.19% # Class of executed instruction
system.cpu2.op_class::SimdShaSigma3                 0      0.00%     85.19% # Class of executed instruction
system.cpu2.op_class::SimdPredAlu                   0      0.00%     85.19% # Class of executed instruction
system.cpu2.op_class::MemRead                       0      0.00%     85.19% # Class of executed instruction
system.cpu2.op_class::MemWrite                      0      0.00%     85.19% # Class of executed instruction
system.cpu2.op_class::FloatMemRead                  4     14.81%    100.00% # Class of executed instruction
system.cpu2.op_class::FloatMemWrite                 0      0.00%    100.00% # Class of executed instruction
system.cpu2.op_class::IprAccess                     0      0.00%    100.00% # Class of executed instruction
system.cpu2.op_class::InstPrefetch                  0      0.00%    100.00% # Class of executed instruction
system.cpu2.op_class::total                        27                       # Class of executed instruction
system.cpu2.workload.numSyscalls                    0                       # Number of system calls
system.cpu3.committedInsts                         15                       # Number of instructions committed
system.cpu3.committedOps                           24                       # Number of ops (including micro ops) committed
system.cpu3.idle_fraction                           0                       # Percentage of idle cycles
system.cpu3.l2bus.snoop_filter.hit_multi_requests           12                       # Number of requests hitting in the snoop filter with multiple (>1) holders of the requested data.
system.cpu3.l2bus.snoop_filter.hit_multi_snoops            1                       # Number of snoops hitting in the snoop filter with multiple (>1) holders of the requested data.
system.cpu3.l2bus.snoop_filter.hit_single_requests     12003509                       # Number of requests hitting in the snoop filter with a single holder of the requested data.
system.cpu3.l2bus.snoop_filter.hit_single_snoops      5243131                       # Number of snoops hitting in the snoop filter with a single holder of the requested data.
system.cpu3.l2bus.snoop_filter.tot_requests     24003570                       # Total number of requests made to the snoop filter.
system.cpu3.l2bus.snoop_filter.tot_snoops      5243132                       # Total number of snoops made to the snoop filter.
system.cpu3.mmucache.mmubus.snoop_filter.hit_multi_requests            0                       # Number of requests hitting in the snoop filter with multiple (>1) holders of the requested data.
system.cpu3.mmucache.mmubus.snoop_filter.hit_multi_snoops            0                       # Number of snoops hitting in the snoop filter with multiple (>1) holders of the requested data.
system.cpu3.mmucache.mmubus.snoop_filter.hit_single_requests            0                       # Number of requests hitting in the snoop filter with a single holder of the requested data.
system.cpu3.mmucache.mmubus.snoop_filter.hit_single_snoops            0                       # Number of snoops hitting in the snoop filter with a single holder of the requested data.
system.cpu3.mmucache.mmubus.snoop_filter.tot_requests            0                       # Total number of requests made to the snoop filter.
system.cpu3.mmucache.mmubus.snoop_filter.tot_snoops            0                       # Total number of snoops made to the snoop filter.
system.cpu3.not_idle_fraction                       1                       # Percentage of non-idle cycles
system.cpu3.numCycles                              31                       # number of cpu cycles simulated
system.cpu3.numWorkItemsCompleted                   0                       # number of work items this cpu completed
system.cpu3.numWorkItemsStarted                     0                       # number of work items this cpu started
system.cpu3.num_busy_cycles                        31                       # Number of busy cycles
system.cpu3.num_cc_register_reads                   2                       # number of times the CC registers were read
system.cpu3.num_cc_register_writes                  2                       # number of times the CC registers were written
system.cpu3.num_conditional_control_insts            0                       # number of instructions that are conditional controls
system.cpu3.num_fp_alu_accesses                    24                       # Number of float alu accesses
system.cpu3.num_fp_insts                           24                       # number of float instructions
system.cpu3.num_fp_register_reads                  40                       # number of times the floating registers were read
system.cpu3.num_fp_register_writes                 23                       # number of times the floating registers were written
system.cpu3.num_func_calls                          0                       # number of times a function call or return occured
system.cpu3.num_idle_cycles                         0                       # Number of idle cycles
system.cpu3.num_int_alu_accesses                    5                       # Number of integer alu accesses
system.cpu3.num_int_insts                           5                       # number of integer instructions
system.cpu3.num_int_register_reads                 15                       # number of times the integer registers were read
system.cpu3.num_int_register_writes                 0                       # number of times the integer registers were written
system.cpu3.num_load_insts                          5                       # Number of load instructions
system.cpu3.num_mem_refs                            5                       # number of memory refs
system.cpu3.num_store_insts                         0                       # Number of store instructions
system.cpu3.num_vec_alu_accesses                    0                       # Number of vector alu accesses
system.cpu3.num_vec_insts                           0                       # number of vector instructions
system.cpu3.num_vec_register_reads                  0                       # number of times the vector registers were read
system.cpu3.num_vec_register_writes                 0                       # number of times the vector registers were written
system.cpu3.op_class::No_OpClass                    0      0.00%      0.00% # Class of executed instruction
system.cpu3.op_class::IntAlu                        4     16.67%     16.67% # Class of executed instruction
system.cpu3.op_class::IntMult                       0      0.00%     16.67% # Class of executed instruction
system.cpu3.op_class::IntDiv                        0      0.00%     16.67% # Class of executed instruction
system.cpu3.op_class::FloatAdd                      4     16.67%     33.33% # Class of executed instruction
system.cpu3.op_class::FloatCmp                      0      0.00%     33.33% # Class of executed instruction
system.cpu3.op_class::FloatCvt                      0      0.00%     33.33% # Class of executed instruction
system.cpu3.op_class::FloatMult                     0      0.00%     33.33% # Class of executed instruction
system.cpu3.op_class::FloatMultAcc                  0      0.00%     33.33% # Class of executed instruction
system.cpu3.op_class::FloatDiv                      0      0.00%     33.33% # Class of executed instruction
system.cpu3.op_class::FloatMisc                     0      0.00%     33.33% # Class of executed instruction
system.cpu3.op_class::FloatSqrt                     0      0.00%     33.33% # Class of executed instruction
system.cpu3.op_class::SimdAdd                       0      0.00%     33.33% # Class of executed instruction
system.cpu3.op_class::SimdAddAcc                    0      0.00%     33.33% # Class of executed instruction
system.cpu3.op_class::SimdAlu                       0      0.00%     33.33% # Class of executed instruction
system.cpu3.op_class::SimdCmp                       0      0.00%     33.33% # Class of executed instruction
system.cpu3.op_class::SimdCvt                       0      0.00%     33.33% # Class of executed instruction
system.cpu3.op_class::SimdMisc                      0      0.00%     33.33% # Class of executed instruction
system.cpu3.op_class::SimdMult                      0      0.00%     33.33% # Class of executed instruction
system.cpu3.op_class::SimdMultAcc                   0      0.00%     33.33% # Class of executed instruction
system.cpu3.op_class::SimdShift                     0      0.00%     33.33% # Class of executed instruction
system.cpu3.op_class::SimdShiftAcc                  0      0.00%     33.33% # Class of executed instruction
system.cpu3.op_class::SimdDiv                       0      0.00%     33.33% # Class of executed instruction
system.cpu3.op_class::SimdSqrt                      0      0.00%     33.33% # Class of executed instruction
system.cpu3.op_class::SimdFloatAdd                  6     25.00%     58.33% # Class of executed instruction
system.cpu3.op_class::SimdFloatAlu                  0      0.00%     58.33% # Class of executed instruction
system.cpu3.op_class::SimdFloatCmp                  1      4.17%     62.50% # Class of executed instruction
system.cpu3.op_class::SimdFloatCvt                  1      4.17%     66.67% # Class of executed instruction
system.cpu3.op_class::SimdFloatDiv                  0      0.00%     66.67% # Class of executed instruction
system.cpu3.op_class::SimdFloatMisc                 0      0.00%     66.67% # Class of executed instruction
system.cpu3.op_class::SimdFloatMult                 3     12.50%     79.17% # Class of executed instruction
system.cpu3.op_class::SimdFloatMultAcc              0      0.00%     79.17% # Class of executed instruction
system.cpu3.op_class::SimdFloatSqrt                 0      0.00%     79.17% # Class of executed instruction
system.cpu3.op_class::SimdReduceAdd                 0      0.00%     79.17% # Class of executed instruction
system.cpu3.op_class::SimdReduceAlu                 0      0.00%     79.17% # Class of executed instruction
system.cpu3.op_class::SimdReduceCmp                 0      0.00%     79.17% # Class of executed instruction
system.cpu3.op_class::SimdFloatReduceAdd            0      0.00%     79.17% # Class of executed instruction
system.cpu3.op_class::SimdFloatReduceCmp            0      0.00%     79.17% # Class of executed instruction
system.cpu3.op_class::SimdAes                       0      0.00%     79.17% # Class of executed instruction
system.cpu3.op_class::SimdAesMix                    0      0.00%     79.17% # Class of executed instruction
system.cpu3.op_class::SimdSha1Hash                  0      0.00%     79.17% # Class of executed instruction
system.cpu3.op_class::SimdSha1Hash2                 0      0.00%     79.17% # Class of executed instruction
system.cpu3.op_class::SimdSha256Hash                0      0.00%     79.17% # Class of executed instruction
system.cpu3.op_class::SimdSha256Hash2               0      0.00%     79.17% # Class of executed instruction
system.cpu3.op_class::SimdShaSigma2                 0      0.00%     79.17% # Class of executed instruction
system.cpu3.op_class::SimdShaSigma3                 0      0.00%     79.17% # Class of executed instruction
system.cpu3.op_class::SimdPredAlu                   0      0.00%     79.17% # Class of executed instruction
system.cpu3.op_class::MemRead                       0      0.00%     79.17% # Class of executed instruction
system.cpu3.op_class::MemWrite                      0      0.00%     79.17% # Class of executed instruction
system.cpu3.op_class::FloatMemRead                  5     20.83%    100.00% # Class of executed instruction
system.cpu3.op_class::FloatMemWrite                 0      0.00%    100.00% # Class of executed instruction
system.cpu3.op_class::IprAccess                     0      0.00%    100.00% # Class of executed instruction
system.cpu3.op_class::InstPrefetch                  0      0.00%    100.00% # Class of executed instruction
system.cpu3.op_class::total                        24                       # Class of executed instruction
system.cpu3.workload.numSyscalls                    0                       # Number of system calls
system.l3bus.snoop_filter.hit_multi_requests            0                       # Number of requests hitting in the snoop filter with multiple (>1) holders of the requested data.
system.l3bus.snoop_filter.hit_multi_snoops            0                       # Number of snoops hitting in the snoop filter with multiple (>1) holders of the requested data.
system.l3bus.snoop_filter.hit_single_requests     42935956                       # Number of requests hitting in the snoop filter with a single holder of the requested data.
system.l3bus.snoop_filter.hit_single_snoops            0                       # Number of snoops hitting in the snoop filter with a single holder of the requested data.
system.l3bus.snoop_filter.tot_requests       85869496                       # Total number of requests made to the snoop filter.
system.l3bus.snoop_filter.tot_snoops                0                       # Total number of snoops made to the snoop filter.
system.membus.snoop_filter.hit_multi_requests            0                       # Number of requests hitting in the snoop filter with multiple (>1) holders of the requested data.
system.membus.snoop_filter.hit_multi_snoops            0                       # Number of snoops hitting in the snoop filter with multiple (>1) holders of the requested data.
system.membus.snoop_filter.hit_single_requests     34398552                       # Number of requests hitting in the snoop filter with a single holder of the requested data.
system.membus.snoop_filter.hit_single_snoops            0                       # Number of snoops hitting in the snoop filter with a single holder of the requested data.
system.membus.snoop_filter.tot_requests      68871017                       # Total number of requests made to the snoop filter.
system.membus.snoop_filter.tot_snoops               0                       # Total number of snoops made to the snoop filter.
system.switch_cpus0.cc_regfile_reads        200229403                       # number of cc regfile reads
system.switch_cpus0.cc_regfile_writes       123985360                       # number of cc regfile writes
system.switch_cpus0.committedInsts          249668508                       # Number of Instructions Simulated
system.switch_cpus0.committedOps            446397841                       # Number of Ops (including micro ops) Simulated
system.switch_cpus0.cpi                      6.541344                       # CPI: Cycles Per Instruction
system.switch_cpus0.cpi_total                6.541344                       # CPI: Total CPI of All Threads
system.switch_cpus0.fp_regfile_reads        381328922                       # number of floating regfile reads
system.switch_cpus0.fp_regfile_writes       287202143                       # number of floating regfile writes
system.switch_cpus0.idleCycles                  38216                       # Total number of cycles that the CPU has spent unscheduled due to idling
system.switch_cpus0.iew.branchMispredicts       652689                       # Number of branch mispredicts detected at execute
system.switch_cpus0.iew.exec_branches        29591799                       # Number of branches executed
system.switch_cpus0.iew.exec_nop                    0                       # number of nop insts executed
system.switch_cpus0.iew.exec_rate            0.368422                       # Inst execution rate
system.switch_cpus0.iew.exec_refs           186314069                       # number of memory reference insts executed
system.switch_cpus0.iew.exec_stores          65065215                       # Number of stores executed
system.switch_cpus0.iew.exec_swp                    0                       # number of swp insts executed
system.switch_cpus0.iew.iewBlockCycles      305587476                       # Number of cycles IEW is blocking
system.switch_cpus0.iew.iewDispLoadInsts    116114941                       # Number of dispatched load instructions
system.switch_cpus0.iew.iewDispNonSpecInsts          121                       # Number of dispatched non-speculative instructions
system.switch_cpus0.iew.iewDispSquashedInsts         9621                       # Number of squashed instructions skipped by dispatch
system.switch_cpus0.iew.iewDispStoreInsts     66635714                       # Number of dispatched store instructions
system.switch_cpus0.iew.iewDispatchedInsts    606376247                       # Number of instructions dispatched to IQ
system.switch_cpus0.iew.iewExecLoadInsts    121248854                       # Number of load instructions executed
system.switch_cpus0.iew.iewExecSquashedInsts      1373435                       # Number of squashed instructions skipped in execute
system.switch_cpus0.iew.iewExecutedInsts    601694356                       # Number of executed instructions
system.switch_cpus0.iew.iewIQFullEvents       1640319                       # Number of times the IQ has become full, causing a stall
system.switch_cpus0.iew.iewIdleCycles               0                       # Number of cycles IEW is idle
system.switch_cpus0.iew.iewLSQFullEvents    340048646                       # Number of times the LSQ has become full, causing a stall
system.switch_cpus0.iew.iewSquashCycles       1693171                       # Number of cycles IEW is squashing
system.switch_cpus0.iew.iewUnblockCycles    342595340                       # Number of cycles IEW is unblocking
system.switch_cpus0.iew.memOrderViolationEvents         7167                       # Number of memory order violations
system.switch_cpus0.iew.predictedNotTakenIncorrect       324048                       # Number of branches that were predicted not taken incorrectly
system.switch_cpus0.iew.predictedTakenIncorrect       328641                       # Number of branches that were predicted taken incorrectly
system.switch_cpus0.iew.wb_consumers        556385417                       # num instructions consuming a value
system.switch_cpus0.iew.wb_count            579660735                       # cumulative count of insts written-back
system.switch_cpus0.iew.wb_fanout            0.618627                       # average fanout of values written-back
system.switch_cpus0.iew.wb_producers        344195011                       # num instructions producing a value
system.switch_cpus0.iew.wb_rate              0.354930                       # insts written-back per cycle
system.switch_cpus0.iew.wb_sent             592804001                       # cumulative count of insts sent to commit
system.switch_cpus0.int_regfile_reads       593640252                       # number of integer regfile reads
system.switch_cpus0.int_regfile_writes      192322002                       # number of integer regfile writes
system.switch_cpus0.ipc                      0.152874                       # IPC: Instructions Per Cycle
system.switch_cpus0.ipc_total                0.152874                       # IPC: Total IPC of All Threads
system.switch_cpus0.iq.FU_type_0::No_OpClass     13174406      2.18%      2.18% # Type of FU issued
system.switch_cpus0.iq.FU_type_0::IntAlu    250649455     41.56%     43.75% # Type of FU issued
system.switch_cpus0.iq.FU_type_0::IntMult            0      0.00%     43.75% # Type of FU issued
system.switch_cpus0.iq.FU_type_0::IntDiv            0      0.00%     43.75% # Type of FU issued
system.switch_cpus0.iq.FU_type_0::FloatAdd     73535843     12.19%     55.94% # Type of FU issued
system.switch_cpus0.iq.FU_type_0::FloatCmp            0      0.00%     55.94% # Type of FU issued
system.switch_cpus0.iq.FU_type_0::FloatCvt            0      0.00%     55.94% # Type of FU issued
system.switch_cpus0.iq.FU_type_0::FloatMult            0      0.00%     55.94% # Type of FU issued
system.switch_cpus0.iq.FU_type_0::FloatMultAcc            0      0.00%     55.94% # Type of FU issued
system.switch_cpus0.iq.FU_type_0::FloatDiv            0      0.00%     55.94% # Type of FU issued
system.switch_cpus0.iq.FU_type_0::FloatMisc            0      0.00%     55.94% # Type of FU issued
system.switch_cpus0.iq.FU_type_0::FloatSqrt            0      0.00%     55.94% # Type of FU issued
system.switch_cpus0.iq.FU_type_0::SimdAdd            0      0.00%     55.94% # Type of FU issued
system.switch_cpus0.iq.FU_type_0::SimdAddAcc            0      0.00%     55.94% # Type of FU issued
system.switch_cpus0.iq.FU_type_0::SimdAlu        58076      0.01%     55.95% # Type of FU issued
system.switch_cpus0.iq.FU_type_0::SimdCmp            0      0.00%     55.95% # Type of FU issued
system.switch_cpus0.iq.FU_type_0::SimdCvt            0      0.00%     55.95% # Type of FU issued
system.switch_cpus0.iq.FU_type_0::SimdMisc            0      0.00%     55.95% # Type of FU issued
system.switch_cpus0.iq.FU_type_0::SimdMult            0      0.00%     55.95% # Type of FU issued
system.switch_cpus0.iq.FU_type_0::SimdMultAcc            0      0.00%     55.95% # Type of FU issued
system.switch_cpus0.iq.FU_type_0::SimdShift            0      0.00%     55.95% # Type of FU issued
system.switch_cpus0.iq.FU_type_0::SimdShiftAcc            0      0.00%     55.95% # Type of FU issued
system.switch_cpus0.iq.FU_type_0::SimdDiv            0      0.00%     55.95% # Type of FU issued
system.switch_cpus0.iq.FU_type_0::SimdSqrt            0      0.00%     55.95% # Type of FU issued
system.switch_cpus0.iq.FU_type_0::SimdFloatAdd     28679361      4.76%     60.71% # Type of FU issued
system.switch_cpus0.iq.FU_type_0::SimdFloatAlu            0      0.00%     60.71% # Type of FU issued
system.switch_cpus0.iq.FU_type_0::SimdFloatCmp     29611985      4.91%     65.62% # Type of FU issued
system.switch_cpus0.iq.FU_type_0::SimdFloatCvt      5706865      0.95%     66.56% # Type of FU issued
system.switch_cpus0.iq.FU_type_0::SimdFloatDiv            0      0.00%     66.56% # Type of FU issued
system.switch_cpus0.iq.FU_type_0::SimdFloatMisc            0      0.00%     66.56% # Type of FU issued
system.switch_cpus0.iq.FU_type_0::SimdFloatMult     14985971      2.48%     69.05% # Type of FU issued
system.switch_cpus0.iq.FU_type_0::SimdFloatMultAcc            0      0.00%     69.05% # Type of FU issued
system.switch_cpus0.iq.FU_type_0::SimdFloatSqrt            0      0.00%     69.05% # Type of FU issued
system.switch_cpus0.iq.FU_type_0::SimdReduceAdd            0      0.00%     69.05% # Type of FU issued
system.switch_cpus0.iq.FU_type_0::SimdReduceAlu            0      0.00%     69.05% # Type of FU issued
system.switch_cpus0.iq.FU_type_0::SimdReduceCmp            0      0.00%     69.05% # Type of FU issued
system.switch_cpus0.iq.FU_type_0::SimdFloatReduceAdd            0      0.00%     69.05% # Type of FU issued
system.switch_cpus0.iq.FU_type_0::SimdFloatReduceCmp            0      0.00%     69.05% # Type of FU issued
system.switch_cpus0.iq.FU_type_0::SimdAes            0      0.00%     69.05% # Type of FU issued
system.switch_cpus0.iq.FU_type_0::SimdAesMix            0      0.00%     69.05% # Type of FU issued
system.switch_cpus0.iq.FU_type_0::SimdSha1Hash            0      0.00%     69.05% # Type of FU issued
system.switch_cpus0.iq.FU_type_0::SimdSha1Hash2            0      0.00%     69.05% # Type of FU issued
system.switch_cpus0.iq.FU_type_0::SimdSha256Hash            0      0.00%     69.05% # Type of FU issued
system.switch_cpus0.iq.FU_type_0::SimdSha256Hash2            0      0.00%     69.05% # Type of FU issued
system.switch_cpus0.iq.FU_type_0::SimdShaSigma2            0      0.00%     69.05% # Type of FU issued
system.switch_cpus0.iq.FU_type_0::SimdShaSigma3            0      0.00%     69.05% # Type of FU issued
system.switch_cpus0.iq.FU_type_0::SimdPredAlu            0      0.00%     69.05% # Type of FU issued
system.switch_cpus0.iq.FU_type_0::MemRead     27275939      4.52%     73.57% # Type of FU issued
system.switch_cpus0.iq.FU_type_0::MemWrite     21732056      3.60%     77.17% # Type of FU issued
system.switch_cpus0.iq.FU_type_0::FloatMemRead     94220629     15.62%     92.80% # Type of FU issued
system.switch_cpus0.iq.FU_type_0::FloatMemWrite     43437205      7.20%    100.00% # Type of FU issued
system.switch_cpus0.iq.FU_type_0::IprAccess            0      0.00%    100.00% # Type of FU issued
system.switch_cpus0.iq.FU_type_0::InstPrefetch            0      0.00%    100.00% # Type of FU issued
system.switch_cpus0.iq.FU_type_0::total     603067791                       # Type of FU issued
system.switch_cpus0.iq.fp_alu_accesses      358254273                       # Number of floating point alu accesses
system.switch_cpus0.iq.fp_inst_queue_reads    701830819                       # Number of floating instruction queue reads
system.switch_cpus0.iq.fp_inst_queue_wakeup_accesses    336266412                       # Number of floating instruction queue wakeup accesses
system.switch_cpus0.iq.fp_inst_queue_writes    388830149                       # Number of floating instruction queue writes
system.switch_cpus0.iq.fu_busy_cnt           24670242                       # FU busy when requested
system.switch_cpus0.iq.fu_busy_rate          0.040908                       # FU busy rate (busy events/executed inst)
system.switch_cpus0.iq.fu_full::No_OpClass            0      0.00%      0.00% # attempts to use FU when none available
system.switch_cpus0.iq.fu_full::IntAlu        1259358      5.10%      5.10% # attempts to use FU when none available
system.switch_cpus0.iq.fu_full::IntMult             0      0.00%      5.10% # attempts to use FU when none available
system.switch_cpus0.iq.fu_full::IntDiv              0      0.00%      5.10% # attempts to use FU when none available
system.switch_cpus0.iq.fu_full::FloatAdd        23310      0.09%      5.20% # attempts to use FU when none available
system.switch_cpus0.iq.fu_full::FloatCmp            0      0.00%      5.20% # attempts to use FU when none available
system.switch_cpus0.iq.fu_full::FloatCvt            0      0.00%      5.20% # attempts to use FU when none available
system.switch_cpus0.iq.fu_full::FloatMult            0      0.00%      5.20% # attempts to use FU when none available
system.switch_cpus0.iq.fu_full::FloatMultAcc            0      0.00%      5.20% # attempts to use FU when none available
system.switch_cpus0.iq.fu_full::FloatDiv            0      0.00%      5.20% # attempts to use FU when none available
system.switch_cpus0.iq.fu_full::FloatMisc            0      0.00%      5.20% # attempts to use FU when none available
system.switch_cpus0.iq.fu_full::FloatSqrt            0      0.00%      5.20% # attempts to use FU when none available
system.switch_cpus0.iq.fu_full::SimdAdd             0      0.00%      5.20% # attempts to use FU when none available
system.switch_cpus0.iq.fu_full::SimdAddAcc            0      0.00%      5.20% # attempts to use FU when none available
system.switch_cpus0.iq.fu_full::SimdAlu             0      0.00%      5.20% # attempts to use FU when none available
system.switch_cpus0.iq.fu_full::SimdCmp             0      0.00%      5.20% # attempts to use FU when none available
system.switch_cpus0.iq.fu_full::SimdCvt             0      0.00%      5.20% # attempts to use FU when none available
system.switch_cpus0.iq.fu_full::SimdMisc            0      0.00%      5.20% # attempts to use FU when none available
system.switch_cpus0.iq.fu_full::SimdMult            0      0.00%      5.20% # attempts to use FU when none available
system.switch_cpus0.iq.fu_full::SimdMultAcc            0      0.00%      5.20% # attempts to use FU when none available
system.switch_cpus0.iq.fu_full::SimdShift            0      0.00%      5.20% # attempts to use FU when none available
system.switch_cpus0.iq.fu_full::SimdShiftAcc            0      0.00%      5.20% # attempts to use FU when none available
system.switch_cpus0.iq.fu_full::SimdDiv             0      0.00%      5.20% # attempts to use FU when none available
system.switch_cpus0.iq.fu_full::SimdSqrt            0      0.00%      5.20% # attempts to use FU when none available
system.switch_cpus0.iq.fu_full::SimdFloatAdd       215351      0.87%      6.07% # attempts to use FU when none available
system.switch_cpus0.iq.fu_full::SimdFloatAlu            0      0.00%      6.07% # attempts to use FU when none available
system.switch_cpus0.iq.fu_full::SimdFloatCmp       900276      3.65%      9.72% # attempts to use FU when none available
system.switch_cpus0.iq.fu_full::SimdFloatCvt            0      0.00%      9.72% # attempts to use FU when none available
system.switch_cpus0.iq.fu_full::SimdFloatDiv            0      0.00%      9.72% # attempts to use FU when none available
system.switch_cpus0.iq.fu_full::SimdFloatMisc            0      0.00%      9.72% # attempts to use FU when none available
system.switch_cpus0.iq.fu_full::SimdFloatMult        26227      0.11%      9.83% # attempts to use FU when none available
system.switch_cpus0.iq.fu_full::SimdFloatMultAcc            0      0.00%      9.83% # attempts to use FU when none available
system.switch_cpus0.iq.fu_full::SimdFloatSqrt            0      0.00%      9.83% # attempts to use FU when none available
system.switch_cpus0.iq.fu_full::SimdReduceAdd            0      0.00%      9.83% # attempts to use FU when none available
system.switch_cpus0.iq.fu_full::SimdReduceAlu            0      0.00%      9.83% # attempts to use FU when none available
system.switch_cpus0.iq.fu_full::SimdReduceCmp            0      0.00%      9.83% # attempts to use FU when none available
system.switch_cpus0.iq.fu_full::SimdFloatReduceAdd            0      0.00%      9.83% # attempts to use FU when none available
system.switch_cpus0.iq.fu_full::SimdFloatReduceCmp            0      0.00%      9.83% # attempts to use FU when none available
system.switch_cpus0.iq.fu_full::SimdAes             0      0.00%      9.83% # attempts to use FU when none available
system.switch_cpus0.iq.fu_full::SimdAesMix            0      0.00%      9.83% # attempts to use FU when none available
system.switch_cpus0.iq.fu_full::SimdSha1Hash            0      0.00%      9.83% # attempts to use FU when none available
system.switch_cpus0.iq.fu_full::SimdSha1Hash2            0      0.00%      9.83% # attempts to use FU when none available
system.switch_cpus0.iq.fu_full::SimdSha256Hash            0      0.00%      9.83% # attempts to use FU when none available
system.switch_cpus0.iq.fu_full::SimdSha256Hash2            0      0.00%      9.83% # attempts to use FU when none available
system.switch_cpus0.iq.fu_full::SimdShaSigma2            0      0.00%      9.83% # attempts to use FU when none available
system.switch_cpus0.iq.fu_full::SimdShaSigma3            0      0.00%      9.83% # attempts to use FU when none available
system.switch_cpus0.iq.fu_full::SimdPredAlu            0      0.00%      9.83% # attempts to use FU when none available
system.switch_cpus0.iq.fu_full::MemRead       1825734      7.40%     17.23% # attempts to use FU when none available
system.switch_cpus0.iq.fu_full::MemWrite      6913078     28.02%     45.25% # attempts to use FU when none available
system.switch_cpus0.iq.fu_full::FloatMemRead      9770320     39.60%     84.85% # attempts to use FU when none available
system.switch_cpus0.iq.fu_full::FloatMemWrite      3736588     15.15%    100.00% # attempts to use FU when none available
system.switch_cpus0.iq.fu_full::IprAccess            0      0.00%    100.00% # attempts to use FU when none available
system.switch_cpus0.iq.fu_full::InstPrefetch            0      0.00%    100.00% # attempts to use FU when none available
system.switch_cpus0.iq.int_alu_accesses     256309354                       # Number of integer alu accesses
system.switch_cpus0.iq.int_inst_queue_reads   2162296914                       # Number of integer instruction queue reads
system.switch_cpus0.iq.int_inst_queue_wakeup_accesses    243394323                       # Number of integer instruction queue wakeup accesses
system.switch_cpus0.iq.int_inst_queue_writes    377531306                       # Number of integer instruction queue writes
system.switch_cpus0.iq.iqInstsAdded         606365811                       # Number of instructions added to the IQ (excludes non-spec)
system.switch_cpus0.iq.iqInstsIssued        603067791                       # Number of instructions issued
system.switch_cpus0.iq.iqNonSpecInstsAdded        10436                       # Number of non-speculative instructions added to the IQ
system.switch_cpus0.iq.iqSquashedInstsExamined    159978258                       # Number of squashed instructions iterated over during squash; mainly for profiling
system.switch_cpus0.iq.iqSquashedInstsIssued       192470                       # Number of squashed instructions issued
system.switch_cpus0.iq.iqSquashedNonSpecRemoved         9395                       # Number of squashed non-spec instructions that were removed
system.switch_cpus0.iq.iqSquashedOperandsExamined     52593655                       # Number of squashed operands that are examined and possibly removed from graph
system.switch_cpus0.iq.issued_per_cycle::samples   1633129439                       # Number of insts issued each cycle
system.switch_cpus0.iq.issued_per_cycle::mean     0.369271                       # Number of insts issued each cycle
system.switch_cpus0.iq.issued_per_cycle::stdev     1.318153                       # Number of insts issued each cycle
system.switch_cpus0.iq.issued_per_cycle::underflows            0      0.00%      0.00% # Number of insts issued each cycle
system.switch_cpus0.iq.issued_per_cycle::0   1465899061     89.76%     89.76% # Number of insts issued each cycle
system.switch_cpus0.iq.issued_per_cycle::1     41622050      2.55%     92.31% # Number of insts issued each cycle
system.switch_cpus0.iq.issued_per_cycle::2     28211377      1.73%     94.04% # Number of insts issued each cycle
system.switch_cpus0.iq.issued_per_cycle::3     20837633      1.28%     95.31% # Number of insts issued each cycle
system.switch_cpus0.iq.issued_per_cycle::4     20014484      1.23%     96.54% # Number of insts issued each cycle
system.switch_cpus0.iq.issued_per_cycle::5     16004606      0.98%     97.52% # Number of insts issued each cycle
system.switch_cpus0.iq.issued_per_cycle::6     15882129      0.97%     98.49% # Number of insts issued each cycle
system.switch_cpus0.iq.issued_per_cycle::7     10128444      0.62%     99.11% # Number of insts issued each cycle
system.switch_cpus0.iq.issued_per_cycle::8     14529655      0.89%    100.00% # Number of insts issued each cycle
system.switch_cpus0.iq.issued_per_cycle::overflows            0      0.00%    100.00% # Number of insts issued each cycle
system.switch_cpus0.iq.issued_per_cycle::min_value            0                       # Number of insts issued each cycle
system.switch_cpus0.iq.issued_per_cycle::max_value            8                       # Number of insts issued each cycle
system.switch_cpus0.iq.issued_per_cycle::total   1633129439                       # Number of insts issued each cycle
system.switch_cpus0.iq.rate                  0.369263                       # Inst issue rate
system.switch_cpus0.iq.vec_alu_accesses             0                       # Number of vector alu accesses
system.switch_cpus0.iq.vec_inst_queue_reads            0                       # Number of vector instruction queue reads
system.switch_cpus0.iq.vec_inst_queue_wakeup_accesses            0                       # Number of vector instruction queue wakeup accesses
system.switch_cpus0.iq.vec_inst_queue_writes            0                       # Number of vector instruction queue writes
system.switch_cpus0.memDep0.conflictingLoads     17447404                       # Number of conflicting loads.
system.switch_cpus0.memDep0.conflictingStores     16655175                       # Number of conflicting stores.
system.switch_cpus0.memDep0.insertedLoads    116114941                       # Number of loads inserted to the mem dependence unit.
system.switch_cpus0.memDep0.insertedStores     66635714                       # Number of stores inserted to the mem dependence unit.
system.switch_cpus0.misc_regfile_reads      247204836                       # number of misc regfile reads
system.switch_cpus0.misc_regfile_writes             1                       # number of misc regfile writes
system.switch_cpus0.numCycles              1633167655                       # number of cpu cycles simulated
system.switch_cpus0.numWorkItemsCompleted            0                       # number of work items this cpu completed
system.switch_cpus0.numWorkItemsStarted             0                       # number of work items this cpu started
system.switch_cpus0.timesIdled                    142                       # Number of times that the entire CPU went into an idle state and unscheduled itself
system.switch_cpus1.cc_regfile_reads        186365679                       # number of cc regfile reads
system.switch_cpus1.cc_regfile_writes       116933155                       # number of cc regfile writes
system.switch_cpus1.committedInsts          232867393                       # Number of Instructions Simulated
system.switch_cpus1.committedOps            415026235                       # Number of Ops (including micro ops) Simulated
system.switch_cpus1.cpi                      7.013295                       # CPI: Cycles Per Instruction
system.switch_cpus1.cpi_total                7.013295                       # CPI: Total CPI of All Threads
system.switch_cpus1.fp_regfile_reads        361949730                       # number of floating regfile reads
system.switch_cpus1.fp_regfile_writes       271994859                       # number of floating regfile writes
system.switch_cpus1.idleCycles                  40347                       # Total number of cycles that the CPU has spent unscheduled due to idling
system.switch_cpus1.iew.branchMispredicts       563972                       # Number of branch mispredicts detected at execute
system.switch_cpus1.iew.exec_branches        27107473                       # Number of branches executed
system.switch_cpus1.iew.exec_nop                    0                       # number of nop insts executed
system.switch_cpus1.iew.exec_rate            0.347010                       # Inst execution rate
system.switch_cpus1.iew.exec_refs           177795398                       # number of memory reference insts executed
system.switch_cpus1.iew.exec_stores          62029567                       # Number of stores executed
system.switch_cpus1.iew.exec_swp                    0                       # number of swp insts executed
system.switch_cpus1.iew.iewBlockCycles      304388848                       # Number of cycles IEW is blocking
system.switch_cpus1.iew.iewDispLoadInsts    109691490                       # Number of dispatched load instructions
system.switch_cpus1.iew.iewDispNonSpecInsts           53                       # Number of dispatched non-speculative instructions
system.switch_cpus1.iew.iewDispSquashedInsts         8199                       # Number of squashed instructions skipped by dispatch
system.switch_cpus1.iew.iewDispStoreInsts     63352780                       # Number of dispatched store instructions
system.switch_cpus1.iew.iewDispatchedInsts    569151990                       # Number of instructions dispatched to IQ
system.switch_cpus1.iew.iewExecLoadInsts    115765831                       # Number of load instructions executed
system.switch_cpus1.iew.iewExecSquashedInsts      1095003                       # Number of squashed instructions skipped in execute
system.switch_cpus1.iew.iewExecutedInsts    566725437                       # Number of executed instructions
system.switch_cpus1.iew.iewIQFullEvents       1705727                       # Number of times the IQ has become full, causing a stall
system.switch_cpus1.iew.iewIdleCycles               0                       # Number of cycles IEW is idle
system.switch_cpus1.iew.iewLSQFullEvents    342090989                       # Number of times the LSQ has become full, causing a stall
system.switch_cpus1.iew.iewSquashCycles       1592690                       # Number of cycles IEW is squashing
system.switch_cpus1.iew.iewUnblockCycles    344762200                       # Number of cycles IEW is unblocking
system.switch_cpus1.iew.memOrderViolationEvents         4668                       # Number of memory order violations
system.switch_cpus1.iew.predictedNotTakenIncorrect       284736                       # Number of branches that were predicted not taken incorrectly
system.switch_cpus1.iew.predictedTakenIncorrect       279236                       # Number of branches that were predicted taken incorrectly
system.switch_cpus1.iew.wb_consumers        518882120                       # num instructions consuming a value
system.switch_cpus1.iew.wb_count            544234299                       # cumulative count of insts written-back
system.switch_cpus1.iew.wb_fanout            0.619816                       # average fanout of values written-back
system.switch_cpus1.iew.wb_producers        321611645                       # num instructions producing a value
system.switch_cpus1.iew.wb_rate              0.333238                       # insts written-back per cycle
system.switch_cpus1.iew.wb_sent             557086892                       # cumulative count of insts sent to commit
system.switch_cpus1.int_regfile_reads       558547131                       # number of integer regfile reads
system.switch_cpus1.int_regfile_writes      178003094                       # number of integer regfile writes
system.switch_cpus1.ipc                      0.142586                       # IPC: Instructions Per Cycle
system.switch_cpus1.ipc_total                0.142586                       # IPC: Total IPC of All Threads
system.switch_cpus1.iq.FU_type_0::No_OpClass     12799771      2.25%      2.25% # Type of FU issued
system.switch_cpus1.iq.FU_type_0::IntAlu    233167481     41.06%     43.32% # Type of FU issued
system.switch_cpus1.iq.FU_type_0::IntMult            0      0.00%     43.32% # Type of FU issued
system.switch_cpus1.iq.FU_type_0::IntDiv            0      0.00%     43.32% # Type of FU issued
system.switch_cpus1.iq.FU_type_0::FloatAdd     68963073     12.15%     55.46% # Type of FU issued
system.switch_cpus1.iq.FU_type_0::FloatCmp            0      0.00%     55.46% # Type of FU issued
system.switch_cpus1.iq.FU_type_0::FloatCvt           14      0.00%     55.46% # Type of FU issued
system.switch_cpus1.iq.FU_type_0::FloatMult            0      0.00%     55.46% # Type of FU issued
system.switch_cpus1.iq.FU_type_0::FloatMultAcc            0      0.00%     55.46% # Type of FU issued
system.switch_cpus1.iq.FU_type_0::FloatDiv            0      0.00%     55.46% # Type of FU issued
system.switch_cpus1.iq.FU_type_0::FloatMisc            0      0.00%     55.46% # Type of FU issued
system.switch_cpus1.iq.FU_type_0::FloatSqrt            0      0.00%     55.46% # Type of FU issued
system.switch_cpus1.iq.FU_type_0::SimdAdd            0      0.00%     55.46% # Type of FU issued
system.switch_cpus1.iq.FU_type_0::SimdAddAcc            0      0.00%     55.46% # Type of FU issued
system.switch_cpus1.iq.FU_type_0::SimdAlu        28556      0.01%     55.47% # Type of FU issued
system.switch_cpus1.iq.FU_type_0::SimdCmp            0      0.00%     55.47% # Type of FU issued
system.switch_cpus1.iq.FU_type_0::SimdCvt            0      0.00%     55.47% # Type of FU issued
system.switch_cpus1.iq.FU_type_0::SimdMisc            0      0.00%     55.47% # Type of FU issued
system.switch_cpus1.iq.FU_type_0::SimdMult            0      0.00%     55.47% # Type of FU issued
system.switch_cpus1.iq.FU_type_0::SimdMultAcc            0      0.00%     55.47% # Type of FU issued
system.switch_cpus1.iq.FU_type_0::SimdShift            0      0.00%     55.47% # Type of FU issued
system.switch_cpus1.iq.FU_type_0::SimdShiftAcc            0      0.00%     55.47% # Type of FU issued
system.switch_cpus1.iq.FU_type_0::SimdDiv            0      0.00%     55.47% # Type of FU issued
system.switch_cpus1.iq.FU_type_0::SimdSqrt            0      0.00%     55.47% # Type of FU issued
system.switch_cpus1.iq.FU_type_0::SimdFloatAdd     27223071      4.79%     60.26% # Type of FU issued
system.switch_cpus1.iq.FU_type_0::SimdFloatAlu            0      0.00%     60.26% # Type of FU issued
system.switch_cpus1.iq.FU_type_0::SimdFloatCmp     28071533      4.94%     65.21% # Type of FU issued
system.switch_cpus1.iq.FU_type_0::SimdFloatCvt      5281100      0.93%     66.14% # Type of FU issued
system.switch_cpus1.iq.FU_type_0::SimdFloatDiv            0      0.00%     66.14% # Type of FU issued
system.switch_cpus1.iq.FU_type_0::SimdFloatMisc            0      0.00%     66.14% # Type of FU issued
system.switch_cpus1.iq.FU_type_0::SimdFloatMult     14232159      2.51%     68.64% # Type of FU issued
system.switch_cpus1.iq.FU_type_0::SimdFloatMultAcc            0      0.00%     68.64% # Type of FU issued
system.switch_cpus1.iq.FU_type_0::SimdFloatSqrt            0      0.00%     68.64% # Type of FU issued
system.switch_cpus1.iq.FU_type_0::SimdReduceAdd            0      0.00%     68.64% # Type of FU issued
system.switch_cpus1.iq.FU_type_0::SimdReduceAlu            0      0.00%     68.64% # Type of FU issued
system.switch_cpus1.iq.FU_type_0::SimdReduceCmp            0      0.00%     68.64% # Type of FU issued
system.switch_cpus1.iq.FU_type_0::SimdFloatReduceAdd            0      0.00%     68.64% # Type of FU issued
system.switch_cpus1.iq.FU_type_0::SimdFloatReduceCmp            0      0.00%     68.64% # Type of FU issued
system.switch_cpus1.iq.FU_type_0::SimdAes            0      0.00%     68.64% # Type of FU issued
system.switch_cpus1.iq.FU_type_0::SimdAesMix            0      0.00%     68.64% # Type of FU issued
system.switch_cpus1.iq.FU_type_0::SimdSha1Hash            0      0.00%     68.64% # Type of FU issued
[...]
system.switch_cpus3.commit.numCommittedDist::0   1515762463     93.84%     93.84% # Number of insts commited each cycle
system.switch_cpus3.commit.numCommittedDist::1     35888815      2.22%     96.06% # Number of insts commited each cycle
system.switch_cpus3.commit.numCommittedDist::2      4783487      0.30%     96.36% # Number of insts commited each cycle
system.switch_cpus3.commit.numCommittedDist::3      8803918      0.55%     96.90% # Number of insts commited each cycle
system.switch_cpus3.commit.numCommittedDist::4      9764616      0.60%     97.51% # Number of insts commited each cycle
system.switch_cpus3.commit.numCommittedDist::5      3144476      0.19%     97.70% # Number of insts commited each cycle
system.switch_cpus3.commit.numCommittedDist::6      3646994      0.23%     97.93% # Number of insts commited each cycle
system.switch_cpus3.commit.numCommittedDist::7      3736050      0.23%     98.16% # Number of insts commited each cycle
system.switch_cpus3.commit.numCommittedDist::8     29762710      1.84%    100.00% # Number of insts commited each cycle
system.switch_cpus3.commit.numCommittedDist::overflows            0      0.00%    100.00% # Number of insts commited each cycle
system.switch_cpus3.commit.numCommittedDist::min_value            0                       # Number of insts commited each cycle
system.switch_cpus3.commit.numCommittedDist::max_value            8                       # Number of insts commited each cycle
system.switch_cpus3.commit.numCommittedDist::total   1615293529                       # Number of insts commited each cycle
system.switch_cpus3.commit.instsCommitted    231625271                       # Number of instructions committed
system.switch_cpus3.commit.opsCommitted     412784381                       # Number of ops (including micro ops) committed
system.switch_cpus3.commit.memRefs           99572550                       # Number of memory references committed
system.switch_cpus3.commit.loads             74349730                       # Number of loads committed
system.switch_cpus3.commit.amos                     0                       # Number of atomic instructions committed
system.switch_cpus3.commit.membars                 40                       # Number of memory barriers committed
system.switch_cpus3.commit.branches          21183903                       # Number of branches committed
system.switch_cpus3.commit.vector                   0                       # Number of committed Vector instructions.
system.switch_cpus3.commit.floating         269679610                       # Number of committed floating point instructions.
system.switch_cpus3.commit.integer          220712078                       # Number of committed integer instructions.
system.switch_cpus3.commit.functionCalls       662140                       # Number of function calls committed.
system.switch_cpus3.commit.committedInstType_0::No_OpClass       129938      0.03%      0.03% # Class of committed instruction
system.switch_cpus3.commit.committedInstType_0::IntAlu    170910598     41.40%     41.44% # Class of committed instruction
system.switch_cpus3.commit.committedInstType_0::IntMult            0      0.00%     41.44% # Class of committed instruction
system.switch_cpus3.commit.committedInstType_0::IntDiv            0      0.00%     41.44% # Class of committed instruction
system.switch_cpus3.commit.committedInstType_0::FloatAdd     67978358     16.47%     57.90% # Class of committed instruction
system.switch_cpus3.commit.committedInstType_0::FloatCmp            0      0.00%     57.90% # Class of committed instruction
system.switch_cpus3.commit.committedInstType_0::FloatCvt            0      0.00%     57.90% # Class of committed instruction
system.switch_cpus3.commit.committedInstType_0::FloatMult            0      0.00%     57.90% # Class of committed instruction
system.switch_cpus3.commit.committedInstType_0::FloatMultAcc            0      0.00%     57.90% # Class of committed instruction
system.switch_cpus3.commit.committedInstType_0::FloatDiv            0      0.00%     57.90% # Class of committed instruction
system.switch_cpus3.commit.committedInstType_0::FloatMisc            0      0.00%     57.90% # Class of committed instruction
system.switch_cpus3.commit.committedInstType_0::FloatSqrt            0      0.00%     57.90% # Class of committed instruction
system.switch_cpus3.commit.committedInstType_0::SimdAdd            0      0.00%     57.90% # Class of committed instruction
system.switch_cpus3.commit.committedInstType_0::SimdAddAcc            0      0.00%     57.90% # Class of committed instruction
system.switch_cpus3.commit.committedInstType_0::SimdAlu        26004      0.01%     57.91% # Class of committed instruction
system.switch_cpus3.commit.committedInstType_0::SimdCmp            0      0.00%     57.91% # Class of committed instruction
system.switch_cpus3.commit.committedInstType_0::SimdCvt            0      0.00%     57.91% # Class of committed instruction
system.switch_cpus3.commit.committedInstType_0::SimdMisc            0      0.00%     57.91% # Class of committed instruction
system.switch_cpus3.commit.committedInstType_0::SimdMult            0      0.00%     57.91% # Class of committed instruction
system.switch_cpus3.commit.committedInstType_0::SimdMultAcc            0      0.00%     57.91% # Class of committed instruction
system.switch_cpus3.commit.committedInstType_0::SimdShift            0      0.00%     57.91% # Class of committed instruction
system.switch_cpus3.commit.committedInstType_0::SimdShiftAcc            0      0.00%     57.91% # Class of committed instruction
system.switch_cpus3.commit.committedInstType_0::SimdDiv            0      0.00%     57.91% # Class of committed instruction
system.switch_cpus3.commit.committedInstType_0::SimdSqrt            0      0.00%     57.91% # Class of committed instruction
system.switch_cpus3.commit.committedInstType_0::SimdFloatAdd     26987362      6.54%     64.45% # Class of committed instruction
system.switch_cpus3.commit.committedInstType_0::SimdFloatAlu            0      0.00%     64.45% # Class of committed instruction
system.switch_cpus3.commit.committedInstType_0::SimdFloatCmp     27833169      6.74%     71.19% # Class of committed instruction
system.switch_cpus3.commit.committedInstType_0::SimdFloatCvt      5231560      1.27%     72.46% # Class of committed instruction
system.switch_cpus3.commit.committedInstType_0::SimdFloatDiv            0      0.00%     72.46% # Class of committed instruction
system.switch_cpus3.commit.committedInstType_0::SimdFloatMisc            0      0.00%     72.46% # Class of committed instruction
system.switch_cpus3.commit.committedInstType_0::SimdFloatMult     14114842      3.42%     75.88% # Class of committed instruction
system.switch_cpus3.commit.committedInstType_0::SimdFloatMultAcc            0      0.00%     75.88% # Class of committed instruction
system.switch_cpus3.commit.committedInstType_0::SimdFloatSqrt            0      0.00%     75.88% # Class of committed instruction
system.switch_cpus3.commit.committedInstType_0::SimdReduceAdd            0      0.00%     75.88% # Class of committed instruction
system.switch_cpus3.commit.committedInstType_0::SimdReduceAlu            0      0.00%     75.88% # Class of committed instruction
system.switch_cpus3.commit.committedInstType_0::SimdReduceCmp            0      0.00%     75.88% # Class of committed instruction
system.switch_cpus3.commit.committedInstType_0::SimdFloatReduceAdd            0      0.00%     75.88% # Class of committed instruction
system.switch_cpus3.commit.committedInstType_0::SimdFloatReduceCmp            0      0.00%     75.88% # Class of committed instruction
system.switch_cpus3.commit.committedInstType_0::SimdAes            0      0.00%     75.88% # Class of committed instruction
system.switch_cpus3.commit.committedInstType_0::SimdAesMix            0      0.00%     75.88% # Class of committed instruction
system.switch_cpus3.commit.committedInstType_0::SimdSha1Hash            0      0.00%     75.88% # Class of committed instruction
system.switch_cpus3.commit.committedInstType_0::SimdSha1Hash2            0      0.00%     75.88% # Class of committed instruction
system.switch_cpus3.commit.committedInstType_0::SimdSha256Hash            0      0.00%     75.88% # Class of committed instruction
system.switch_cpus3.commit.committedInstType_0::SimdSha256Hash2            0      0.00%     75.88% # Class of committed instruction
system.switch_cpus3.commit.committedInstType_0::SimdShaSigma2            0      0.00%     75.88% # Class of committed instruction
system.switch_cpus3.commit.committedInstType_0::SimdShaSigma3            0      0.00%     75.88% # Class of committed instruction
system.switch_cpus3.commit.committedInstType_0::SimdPredAlu            0      0.00%     75.88% # Class of committed instruction
system.switch_cpus3.commit.committedInstType_0::MemRead     15030503      3.64%     79.52% # Class of committed instruction
system.switch_cpus3.commit.committedInstType_0::MemWrite      6800706      1.65%     81.17% # Class of committed instruction
system.switch_cpus3.commit.committedInstType_0::FloatMemRead     59319227     14.37%     95.54% # Class of committed instruction
system.switch_cpus3.commit.committedInstType_0::FloatMemWrite     18422114      4.46%    100.00% # Class of committed instruction
system.switch_cpus3.commit.committedInstType_0::IprAccess            0      0.00%    100.00% # Class of committed instruction
system.switch_cpus3.commit.committedInstType_0::InstPrefetch            0      0.00%    100.00% # Class of committed instruction
system.switch_cpus3.commit.committedInstType_0::total    412784381                       # Class of committed instruction
system.switch_cpus3.commit.commitEligibleSamples     29762710                       # number cycles where commit BW limit reached
system.switch_cpus3.decode.idleCycles        14800763                       # Number of cycles decode is idle
system.switch_cpus3.decode.blockedCycles   1540400688                       # Number of cycles decode is blocked
system.switch_cpus3.decode.runCycles         47335920                       # Number of cycles decode is running
system.switch_cpus3.decode.unblockCycles     28996542                       # Number of cycles decode is unblocking
system.switch_cpus3.decode.squashCycles       1583198                       # Number of cycles decode is squashing
system.switch_cpus3.decode.branchResolved     16392529                       # Number of times decode resolved a  branch
system.switch_cpus3.decode.branchMispred          263                       # Number of times decode detected a branch misprediction
system.switch_cpus3.decode.decodedInsts     583290856                       # Number of instructions handled by decode
system.switch_cpus3.decode.squashedInsts         1507                       # Number of squashed instructions handled by decode
system.switch_cpus3.dtb.rdAccesses          117107156                       # TLB accesses on read requests
system.switch_cpus3.dtb.wrAccesses           61691248                       # TLB accesses on write requests
system.switch_cpus3.dtb.rdMisses              2707137                       # TLB misses on read requests
system.switch_cpus3.dtb.wrMisses               328251                       # TLB misses on write requests
system.switch_cpus3.dtb.walker.power_state.pwrStateResidencyTicks::UNDEFINED 18763007084127                       # Cumulative time (in ticks) in various power states
system.switch_cpus3.fetch.icacheStallCycles       786038                       # Number of cycles fetch is stalled on an Icache miss
system.switch_cpus3.fetch.insts             336792962                       # Number of instructions fetch has processed
system.switch_cpus3.fetch.branches           33661555                       # Number of branches that fetch encountered
system.switch_cpus3.fetch.predictedBranches     19908781                       # Number of branches that fetch has predicted taken
system.switch_cpus3.fetch.cycles           1630747438                       # Number of cycles fetch has run and was not squashing or blocked
system.switch_cpus3.fetch.squashCycles        3166902                       # Number of cycles fetch has spent squashing
system.switch_cpus3.fetch.miscStallCycles            7                       # Number of cycles fetch has spent waiting on interrupts,or bad addresses, or out of MSHRs
system.switch_cpus3.fetch.pendingTrapStallCycles          180                       # Number of stall cycles due to pending traps
system.switch_cpus3.fetch.cacheLines         43377652                       # Number of cache lines fetched
system.switch_cpus3.fetch.icacheSquashes          197                       # Number of outstanding Icache misses that were squashed
system.switch_cpus3.fetch.nisnDist::samples   1633117114                       # Number of instructions fetched each cycle (Total)
system.switch_cpus3.fetch.nisnDist::mean     0.394010                       # Number of instructions fetched each cycle (Total)
system.switch_cpus3.fetch.nisnDist::stdev     1.610237                       # Number of instructions fetched each cycle (Total)
system.switch_cpus3.fetch.nisnDist::underflows            0      0.00%      0.00% # Number of instructions fetched each cycle (Total)
system.switch_cpus3.fetch.nisnDist::0      1525745369     93.43%     93.43% # Number of instructions fetched each cycle (Total)
system.switch_cpus3.fetch.nisnDist::1         4601897      0.28%     93.71% # Number of instructions fetched each cycle (Total)
system.switch_cpus3.fetch.nisnDist::2        12189264      0.75%     94.45% # Number of instructions fetched each cycle (Total)
system.switch_cpus3.fetch.nisnDist::3         7116695      0.44%     94.89% # Number of instructions fetched each cycle (Total)
system.switch_cpus3.fetch.nisnDist::4         6478615      0.40%     95.29% # Number of instructions fetched each cycle (Total)
system.switch_cpus3.fetch.nisnDist::5         9572286      0.59%     95.87% # Number of instructions fetched each cycle (Total)
system.switch_cpus3.fetch.nisnDist::6         6183567      0.38%     96.25% # Number of instructions fetched each cycle (Total)
system.switch_cpus3.fetch.nisnDist::7         7579104      0.46%     96.71% # Number of instructions fetched each cycle (Total)
system.switch_cpus3.fetch.nisnDist::8        53650317      3.29%    100.00% # Number of instructions fetched each cycle (Total)
system.switch_cpus3.fetch.nisnDist::overflows            0      0.00%    100.00% # Number of instructions fetched each cycle (Total)
system.switch_cpus3.fetch.nisnDist::min_value            0                       # Number of instructions fetched each cycle (Total)
system.switch_cpus3.fetch.nisnDist::max_value            8                       # Number of instructions fetched each cycle (Total)
system.switch_cpus3.fetch.nisnDist::total   1633117114                       # Number of instructions fetched each cycle (Total)
system.switch_cpus3.fetch.branchRate         0.020611                       # Number of branch fetches per cycle
system.switch_cpus3.fetch.rate               0.206221                       # Number of inst fetches per cycle
system.switch_cpus3.itb.rdAccesses                  0                       # TLB accesses on read requests
system.switch_cpus3.itb.wrAccesses           43377697                       # TLB accesses on write requests
system.switch_cpus3.itb.rdMisses                    0                       # TLB misses on read requests
system.switch_cpus3.itb.wrMisses                   74                       # TLB misses on write requests
system.switch_cpus3.itb.walker.power_state.pwrStateResidencyTicks::UNDEFINED 18763007084127                       # Cumulative time (in ticks) in various power states
system.switch_cpus3.lsq0.forwLoads             788397                       # Number of loads that had data forwarded from stores
system.switch_cpus3.lsq0.squashedLoads       34748389                       # Number of loads squashed
system.switch_cpus3.lsq0.ignoredResponses          732                       # Number of memory responses ignored because the instruction is squashed
system.switch_cpus3.lsq0.memOrderViolation         4283                       # Number of memory ordering violations
system.switch_cpus3.lsq0.squashedStores      37775523                       # Number of stores squashed
system.switch_cpus3.lsq0.rescheduledLoads      7457561                       # Number of loads that were rescheduled
system.switch_cpus3.lsq0.blockedByCache          8545                       # Number of times an access to memory failed due to the cache being blocked
system.switch_cpus3.power_state.pwrStateResidencyTicks::OFF 543844840104                       # Cumulative time (in ticks) in various power states
system.switch_cpus3.rename.squashCycles       1583198                       # Number of cycles rename is squashing
system.switch_cpus3.rename.idleCycles        25925690                       # Number of cycles rename is idle
system.switch_cpus3.rename.blockCycles      907864878                       # Number of cycles rename is blocking
system.switch_cpus3.rename.serializeStallCycles            0                       # count of cycles rename stalledfor serializing inst
system.switch_cpus3.rename.runCycles         63346288                       # Number of cycles rename is running
system.switch_cpus3.rename.unblockCycles    634397057                       # Number of cycles rename is unblocking
system.switch_cpus3.rename.renamedInsts     570033795                       # Number of instructions processed by rename
system.switch_cpus3.rename.ROBFullEvents      8762856                       # Number of times rename has blocked due to ROB full
system.switch_cpus3.rename.IQFullEvents     143113394                       # Number of times rename has blocked due to IQ full
system.switch_cpus3.rename.LQFullEvents     281349554                       # Number of times rename has blocked due to LQ full
system.switch_cpus3.rename.SQFullEvents     314797299                       # Number of times rename has blocked due to SQ full
system.switch_cpus3.rename.renamedOperands    582221432                       # Number of destination operands rename has renamed
system.switch_cpus3.rename.lookups         1361608196                       # Number of register rename lookups that rename has made
system.switch_cpus3.rename.intLookups       563284034                       # Number of integer rename lookups
system.switch_cpus3.rename.fpLookups        362395140                       # Number of floating rename lookups
system.switch_cpus3.rename.committedMaps    437066072                       # Number of HB maps that are committed
system.switch_cpus3.rename.undoneMaps       145155355                       # Number of HB maps that are undone due to squashing
system.switch_cpus3.rename.serializing              0                       # count of serializing insts renamed
system.switch_cpus3.rename.tempSerializing            0                       # count of temporary serializing insts renamed
system.switch_cpus3.rename.skidInsts        160812335                       # count of insts added to the skid buffer
system.switch_cpus3.rob.reads              2114281957                       # The number of ROB reads
system.switch_cpus3.rob.writes             1102644486                       # The number of ROB writes
system.switch_cpus3.thread0.numInsts        231625271                       # Number of Instructions committed
system.switch_cpus3.thread0.numOps          412784381                       # Number of Ops committed
system.switch_cpus3.thread0.numMemRefs              0                       # Number of Memory References
system.voltage_domain.voltage                       1                       # Voltage in Volts

---------- End Simulation Statistics   ----------
