Command line:
./runscript_pride.sh exchange2 RFM1.BR1.4C 4 2017 --rh_defense --rh_mitigation=RFM --rh_rfm_per_trefi=1 --rh_rfm_blast_radius=1 --rh_rfm_maxacts_per_trefi=79
Global frequency set at 1000000000000 ticks per second
RFM details - rfm_act_threshold: 79, blast_radius: 1, delay_per_rfm: 175000 ps. sample_rate: 0.012500
RH Defense config: RFM, Bus Delay: 0, rfms_per_trefi: 1, rfm_act_threshold: 79, blast_radius: 1,rfm_delay_per_act: 45000 ps.
DRAM config: RowsPerBank: 65536, BanksPerRank: 32, RanksPerChannel: 1
warn: Sockets disabled, not accepting gdb connections
warn: CoherentXBar system.cpu0.mmucache.mmubus has no snooping ports attached!
warn: CoherentXBar system.cpu1.mmucache.mmubus has no snooping ports attached!
warn: CoherentXBar system.cpu2.mmucache.mmubus has no snooping ports attached!
warn: CoherentXBar system.cpu3.mmucache.mmubus has no snooping ports attached!
warn: Checkpoints for file descriptors currently do not work.
warn: Checkpoints for file descriptors currently do not work.
warn: Checkpoints for file descriptors currently do not work.
warn: Checkpoints for file descriptors currently do not work.
gem5 Simulator System.  http://gem5.org
gem5 is copyrighted software; use the --copyright option for details.

gem5 version 20.1.0.5
gem5 compiled Jul 12 2024 12:42:38
gem5 started Jul 31 2024 15:37:59
gem5 executing on a07dda8b130c, pid 238775
command line: /home/user/PrIDE/performance/gem5/build/X86/gem5.opt --outdir=/home/user/PrIDE/performance/gem5/stats/pride_multiprogram_16GBmem_250Mn.SPEC2017.C4/RFM1.BR1.4C/exchange2 /home/user/PrIDE/performance/gem5/configs/example/se_rq_spec_config_multicore.py --redirects /lib64=/home/utils/gcc-6.2.0/lib64 --benchmark=exchange2 --benchmark_stdout=/home/user/PrIDE/performance/gem5/stats/pride_multiprogram_16GBmem_250Mn.SPEC2017.C4/RFM1.BR1.4C/exchange2/exchange2.out --benchmark_stderr=/home/user/PrIDE/performance/gem5/stats/pride_multiprogram_16GBmem_250Mn.SPEC2017.C4/RFM1.BR1.4C/exchange2/exchange2.err --spec-version=2017 --rh_defense --rh_mitigation=RFM --rh_rfm_per_trefi=1 --rh_rfm_blast_radius=1 --rh_rfm_maxacts_per_trefi=79 --num-cpus=4 --mem-size=16GB --mem-type=DDR5_2400_32x4 --mem-ranks=1 --mem-channels=1 --checkpoint-dir=/home/user/PrIDE/performance/gem5/cpts-DDR5/multiprogram_16GBmem_25Bn.SPEC2017.C4/exchange2-1-ref-x86 --checkpoint-restore=25000000000 --at-instruction --cpu-type DerivO3CPU --caches --l2cache --l1d_size=32kB --l1i_size=32kB --l2_size=256kB --l3_size=4MB --l1d_assoc=8 --l1i_assoc=8 --l2_assoc=16 --l3_assoc=16 --cpu-clock=3GHz --sys-clock=3GHz --maxinsts=250000000 --prog-interval=300Hz

info: Standard input is not a terminal, disabling listeners.
Benchmark- 0   exchange2
Selected benchmark
--> exchange2
CMD: ['/opt/spec2017/benchspec/CPU/548.exchange2_r/run/run_base_refrate_gem5_se-m64.0000/exchange2_r_base.gem5_se-m64', '6']
CWD: /opt/spec2017/benchspec/CPU/548.exchange2_r/run/run_base_refrate_gem5_se-m64.0000/
Process stdout file: /home/user/PrIDE/performance/gem5/stats/pride_multiprogram_16GBmem_250Mn.SPEC2017.C4/RFM1.BR1.4C/exchange2/exchange2.out_0
Process stderr file: /home/user/PrIDE/performance/gem5/stats/pride_multiprogram_16GBmem_250Mn.SPEC2017.C4/RFM1.BR1.4C/exchange2/exchange2.err_0
Benchmark- 1   exchange2
Selected benchmark
--> exchange2
CMD: ['/opt/spec2017/benchspec/CPU/548.exchange2_r/run/run_base_refrate_gem5_se-m64.0000/exchange2_r_base.gem5_se-m64', '6']
CWD: /opt/spec2017/benchspec/CPU/548.exchange2_r/run/run_base_refrate_gem5_se-m64.0000/
Process stdout file: /home/user/PrIDE/performance/gem5/stats/pride_multiprogram_16GBmem_250Mn.SPEC2017.C4/RFM1.BR1.4C/exchange2/exchange2.out_1
Process stderr file: /home/user/PrIDE/performance/gem5/stats/pride_multiprogram_16GBmem_250Mn.SPEC2017.C4/RFM1.BR1.4C/exchange2/exchange2.err_1
Benchmark- 2   exchange2
Selected benchmark
--> exchange2
CMD: ['/opt/spec2017/benchspec/CPU/548.exchange2_r/run/run_base_refrate_gem5_se-m64.0000/exchange2_r_base.gem5_se-m64', '6']
CWD: /opt/spec2017/benchspec/CPU/548.exchange2_r/run/run_base_refrate_gem5_se-m64.0000/
Process stdout file: /home/user/PrIDE/performance/gem5/stats/pride_multiprogram_16GBmem_250Mn.SPEC2017.C4/RFM1.BR1.4C/exchange2/exchange2.out_2
Process stderr file: /home/user/PrIDE/performance/gem5/stats/pride_multiprogram_16GBmem_250Mn.SPEC2017.C4/RFM1.BR1.4C/exchange2/exchange2.err_2
Benchmark- 3   exchange2
Selected benchmark
--> exchange2
CMD: ['/opt/spec2017/benchspec/CPU/548.exchange2_r/run/run_base_refrate_gem5_se-m64.0000/exchange2_r_base.gem5_se-m64', '6']
CWD: /opt/spec2017/benchspec/CPU/548.exchange2_r/run/run_base_refrate_gem5_se-m64.0000/
Process stdout file: /home/user/PrIDE/performance/gem5/stats/pride_multiprogram_16GBmem_250Mn.SPEC2017.C4/RFM1.BR1.4C/exchange2/exchange2.out_3
Process stderr file: /home/user/PrIDE/performance/gem5/stats/pride_multiprogram_16GBmem_250Mn.SPEC2017.C4/RFM1.BR1.4C/exchange2/exchange2.err_3
Workload-0: 
['/opt/spec2017/benchspec/CPU/548.exchange2_r/run/run_base_refrate_gem5_se-m64.0000/exchange2_r_base.gem5_se-m64', '6']
Workload-1: 
['/opt/spec2017/benchspec/CPU/548.exchange2_r/run/run_base_refrate_gem5_se-m64.0000/exchange2_r_base.gem5_se-m64', '6']
Workload-2: 
['/opt/spec2017/benchspec/CPU/548.exchange2_r/run/run_base_refrate_gem5_se-m64.0000/exchange2_r_base.gem5_se-m64', '6']
Workload-3: 
['/opt/spec2017/benchspec/CPU/548.exchange2_r/run/run_base_refrate_gem5_se-m64.0000/exchange2_r_base.gem5_se-m64', '6']
defense_enable:  True  detector:  MG  mitigation:  RFM  threshold:  800
mg_entries:  1700
rfm_maxacts_per_trefi:  79 rfm_per_trefi:  1 rfm_blast_radius:  1
Switch at curTick count:10000
warn: membus.master is deprecated. `master` is now called `mem_side_ports`
warn: No dot file generated. Please install pydot to generate the dot file and pdf.
info: Entering event queue @ 19742845048677.  Starting simulation...
info: Entering event queue @ 19742845058677.  Starting simulation...
warn: PowerState: Already in the requested power state, request ignored
Switched CPUS @ tick 19742845058677
switching cpus
**** REAL SIMULATION ****
info: Entering event queue @ 19742845059333.  Starting simulation...
19746178382010: Event_285: system.switch_cpus3 progress event, total committed:33218210, progress insts committed: 33218210, IPC: 003.3185
19746178382010: Event_284: system.switch_cpus2 progress event, total committed:33215297, progress insts committed: 33215297, IPC: 03.31821
19746178382010: Event_283: system.switch_cpus1 progress event, total committed:33214943, progress insts committed: 33214943, IPC: 03.31817
19746178382010: Event_282: system.switch_cpus0 progress event, total committed:33214804, progress insts committed: 33214804, IPC: 03.31816
19749511715343: Event_282: system.switch_cpus0 progress event, total committed:66364990, progress insts committed: 33150186, IPC: 003.3117
19749511715343: Event_283: system.switch_cpus1 progress event, total committed:66365172, progress insts committed: 33150229, IPC: 03.31171
19749511715343: Event_284: system.switch_cpus2 progress event, total committed:66365498, progress insts committed: 33150201, IPC: 03.31171
19749511715343: Event_285: system.switch_cpus3 progress event, total committed:66368325, progress insts committed: 33150115, IPC: 003.3117
19752845048676: Event_285: system.switch_cpus3 progress event, total committed:100562063, progress insts committed: 34193738, IPC: 03.41595
19752845048676: Event_284: system.switch_cpus2 progress event, total committed:100559071, progress insts committed: 34193573, IPC: 03.41594
19752845048676: Event_283: system.switch_cpus1 progress event, total committed:100558676, progress insts committed: 34193504, IPC: 03.41593
19752845048676: Event_282: system.switch_cpus0 progress event, total committed:100558669, progress insts committed: 34193679, IPC: 03.41595
19756178382009: Event_282: system.switch_cpus0 progress event, total committed:136541137, progress insts committed: 35982468, IPC: 03.59465
19756178382009: Event_283: system.switch_cpus1 progress event, total committed:136541192, progress insts committed: 35982516, IPC: 03.59465
19756178382009: Event_284: system.switch_cpus2 progress event, total committed:136541846, progress insts committed: 35982775, IPC: 03.59468
19756178382009: Event_285: system.switch_cpus3 progress event, total committed:136545098, progress insts committed: 35983035, IPC: 03.59471
19759511715342: Event_285: system.switch_cpus3 progress event, total committed:173291678, progress insts committed: 36746580, IPC: 03.67098
19759511715342: Event_284: system.switch_cpus2 progress event, total committed:173287835, progress insts committed: 36745989, IPC: 03.67092
19759511715342: Event_283: system.switch_cpus1 progress event, total committed:173287320, progress insts committed: 36746128, IPC: 03.67094
19759511715342: Event_282: system.switch_cpus0 progress event, total committed:173287309, progress insts committed: 36746172, IPC: 03.67094
19762845048675: Event_282: system.switch_cpus0 progress event, total committed:208215513, progress insts committed: 34928204, IPC: 03.48933
19762845048675: Event_283: system.switch_cpus1 progress event, total committed:208215535, progress insts committed: 34928215, IPC: 03.48933
19762845048675: Event_284: system.switch_cpus2 progress event, total committed:208216132, progress insts committed: 34928297, IPC: 03.48934
19762845048675: Event_285: system.switch_cpus3 progress event, total committed:208220260, progress insts committed: 34928582, IPC: 03.48937
19766178382008: Event_285: system.switch_cpus3 progress event, total committed:243259050, progress insts committed: 35038790, IPC: 03.50038
19766178382008: Event_284: system.switch_cpus2 progress event, total committed:243255850, progress insts committed: 35039718, IPC: 03.50047
19766178382008: Event_283: system.switch_cpus1 progress event, total committed:243255482, progress insts committed: 35039947, IPC: 03.50049
19766178382008: Event_282: system.switch_cpus0 progress event, total committed:243255401, progress insts committed: 35039888, IPC: 03.50048
19769511715341: Event_282: system.switch_cpus0 progress event, total committed:278237119, progress insts committed: 34981718, IPC: 03.49467
19769511715341: Event_283: system.switch_cpus1 progress event, total committed:278237159, progress insts committed: 34981677, IPC: 03.49467
19769511715341: Event_284: system.switch_cpus2 progress event, total committed:278237640, progress insts committed: 34981790, IPC: 03.49468
19769511715341: Event_285: system.switch_cpus3 progress event, total committed:278241227, progress insts committed: 34982177, IPC: 03.49472
19772845048674: Event_285: system.switch_cpus3 progress event, total committed:312102470, progress insts committed: 33861243, IPC: 03.38274
19772845048674: Event_284: system.switch_cpus2 progress event, total committed:312100581, progress insts committed: 33862941, IPC: 03.38291
19772845048674: Event_283: system.switch_cpus1 progress event, total committed:312100462, progress insts committed: 33863303, IPC: 03.38294
19772845048674: Event_282: system.switch_cpus0 progress event, total committed:312100216, progress insts committed: 33863097, IPC: 03.38292
19776178382007: Event_282: system.switch_cpus0 progress event, total committed:346441147, progress insts committed: 34340931, IPC: 03.43066
19776178382007: Event_283: system.switch_cpus1 progress event, total committed:346441014, progress insts committed: 34340552, IPC: 03.43062
19776178382007: Event_284: system.switch_cpus2 progress event, total committed:346441652, progress insts committed: 34341071, IPC: 03.43067
19776178382007: Event_285: system.switch_cpus3 progress event, total committed:346444316, progress insts committed: 34341846, IPC: 03.43075
19779511715340: Event_285: system.switch_cpus3 progress event, total committed:380106973, progress insts committed: 33662657, IPC: 003.3629
19779511715340: Event_284: system.switch_cpus2 progress event, total committed:380104026, progress insts committed: 33662374, IPC: 03.36287
19779511715340: Event_283: system.switch_cpus1 progress event, total committed:380103170, progress insts committed: 33662156, IPC: 03.36285
19779511715340: Event_282: system.switch_cpus0 progress event, total committed:380103799, progress insts committed: 33662652, IPC: 003.3629
19782845048673: Event_282: system.switch_cpus0 progress event, total committed:414864025, progress insts committed: 34760226, IPC: 03.47255
19782845048673: Event_283: system.switch_cpus1 progress event, total committed:414863524, progress insts committed: 34760354, IPC: 03.47256
19782845048673: Event_284: system.switch_cpus2 progress event, total committed:414864047, progress insts committed: 34760021, IPC: 03.47253
19782845048673: Event_285: system.switch_cpus3 progress event, total committed:414865076, progress insts committed: 34758103, IPC: 03.47233
19786178382006: Event_285: system.switch_cpus3 progress event, total committed:447921548, progress insts committed: 33056472, IPC: 03.30234
19786178382006: Event_284: system.switch_cpus2 progress event, total committed:447920027, progress insts committed: 33055980, IPC: 03.30229
19786178382006: Event_283: system.switch_cpus1 progress event, total committed:447919621, progress insts committed: 33056097, IPC: 003.3023
19786178382006: Event_282: system.switch_cpus0 progress event, total committed:447920214, progress insts committed: 33056189, IPC: 03.30231
19789511715339: Event_282: system.switch_cpus0 progress event, total committed:481374745, progress insts committed: 33454531, IPC: 03.34211
19789511715339: Event_283: system.switch_cpus1 progress event, total committed:481374582, progress insts committed: 33454961, IPC: 03.34215
19789511715339: Event_284: system.switch_cpus2 progress event, total committed:481375148, progress insts committed: 33455121, IPC: 03.34217
19789511715339: Event_285: system.switch_cpus3 progress event, total committed:481375504, progress insts committed: 33453956, IPC: 03.34205
Exiting @ tick 19790311566645 because a thread reached the max instruction count
