
---------- Begin Simulation Statistics ----------
final_tick                               17928127275651                       # Number of ticks from beginning of simulation (restored from checkpoints and never reset)
host_inst_rate                                 176521                       # Simulator instruction rate (inst/s)
host_mem_usage                               16976708                       # Number of bytes of host memory used
host_op_rate                                   318091                       # Simulator op (including micro ops) rate (op/s)
host_seconds                                  1416.26                       # Real time elapsed on the host
host_tick_rate                               23386733                       # Simulator tick rate (ticks/s)
sim_freq                                 1000000000000                       # Frequency of simulated ticks
sim_insts                                   250000018                       # Number of instructions simulated
sim_ops                                     450499490                       # Number of ops (including micro ops) simulated
sim_seconds                                  0.033122                       # Number of seconds simulated
sim_ticks                                 33121713465                       # Number of ticks simulated
system.cpu.committedInsts                          17                       # Number of instructions committed
system.cpu.committedOps                            24                       # Number of ops (including micro ops) committed
system.cpu.idle_fraction                            0                       # Percentage of idle cycles
system.cpu.l2bus.snoop_filter.hit_multi_requests        45589                       # Number of requests hitting in the snoop filter with multiple (>1) holders of the requested data.
system.cpu.l2bus.snoop_filter.hit_multi_snoops            0                       # Number of snoops hitting in the snoop filter with multiple (>1) holders of the requested data.
system.cpu.l2bus.snoop_filter.hit_single_requests      1721452                       # Number of requests hitting in the snoop filter with a single holder of the requested data.
system.cpu.l2bus.snoop_filter.hit_single_snoops            0                       # Number of snoops hitting in the snoop filter with a single holder of the requested data.
system.cpu.l2bus.snoop_filter.tot_requests      3443849                       # Total number of requests made to the snoop filter.
system.cpu.l2bus.snoop_filter.tot_snoops            0                       # Total number of snoops made to the snoop filter.
system.cpu.mmucache.mmubus.snoop_filter.hit_multi_requests            0                       # Number of requests hitting in the snoop filter with multiple (>1) holders of the requested data.
system.cpu.mmucache.mmubus.snoop_filter.hit_multi_snoops            0                       # Number of snoops hitting in the snoop filter with multiple (>1) holders of the requested data.
system.cpu.mmucache.mmubus.snoop_filter.hit_single_requests            0                       # Number of requests hitting in the snoop filter with a single holder of the requested data.
system.cpu.mmucache.mmubus.snoop_filter.hit_single_snoops            0                       # Number of snoops hitting in the snoop filter with a single holder of the requested data.
system.cpu.mmucache.mmubus.snoop_filter.tot_requests            0                       # Total number of requests made to the snoop filter.
system.cpu.mmucache.mmubus.snoop_filter.tot_snoops            0                       # Total number of snoops made to the snoop filter.
system.cpu.not_idle_fraction                        1                       # Percentage of non-idle cycles
system.cpu.numCycles                               31                       # number of cpu cycles simulated
system.cpu.numWorkItemsCompleted                    0                       # number of work items this cpu completed
system.cpu.numWorkItemsStarted                      0                       # number of work items this cpu started
system.cpu.num_busy_cycles                         31                       # Number of busy cycles
system.cpu.num_cc_register_reads                    2                       # number of times the CC registers were read
system.cpu.num_cc_register_writes                   4                       # number of times the CC registers were written
system.cpu.num_conditional_control_insts            0                       # number of instructions that are conditional controls
system.cpu.num_fp_alu_accesses                     17                       # Number of float alu accesses
system.cpu.num_fp_insts                            17                       # number of float instructions
system.cpu.num_fp_register_reads                   36                       # number of times the floating registers were read
system.cpu.num_fp_register_writes                  17                       # number of times the floating registers were written
system.cpu.num_func_calls                           0                       # number of times a function call or return occured
system.cpu.num_idle_cycles                          0                       # Number of idle cycles
system.cpu.num_int_alu_accesses                    11                       # Number of integer alu accesses
system.cpu.num_int_insts                           11                       # number of integer instructions
system.cpu.num_int_register_reads                  30                       # number of times the integer registers were read
system.cpu.num_int_register_writes                  5                       # number of times the integer registers were written
system.cpu.num_load_insts                           6                       # Number of load instructions
system.cpu.num_mem_refs                             8                       # number of memory refs
system.cpu.num_store_insts                          2                       # Number of store instructions
system.cpu.num_vec_alu_accesses                     0                       # Number of vector alu accesses
system.cpu.num_vec_insts                            0                       # number of vector instructions
system.cpu.num_vec_register_reads                   0                       # number of times the vector registers were read
system.cpu.num_vec_register_writes                  0                       # number of times the vector registers were written
system.cpu.op_class::No_OpClass                     0      0.00%      0.00% # Class of executed instruction
system.cpu.op_class::IntAlu                         6     25.00%     25.00% # Class of executed instruction
system.cpu.op_class::IntMult                        0      0.00%     25.00% # Class of executed instruction
system.cpu.op_class::IntDiv                         0      0.00%     25.00% # Class of executed instruction
system.cpu.op_class::FloatAdd                       0      0.00%     25.00% # Class of executed instruction
system.cpu.op_class::FloatCmp                       0      0.00%     25.00% # Class of executed instruction
system.cpu.op_class::FloatCvt                       0      0.00%     25.00% # Class of executed instruction
system.cpu.op_class::FloatMult                      0      0.00%     25.00% # Class of executed instruction
system.cpu.op_class::FloatMultAcc                   0      0.00%     25.00% # Class of executed instruction
system.cpu.op_class::FloatDiv                       0      0.00%     25.00% # Class of executed instruction
system.cpu.op_class::FloatMisc                      0      0.00%     25.00% # Class of executed instruction
system.cpu.op_class::FloatSqrt                      0      0.00%     25.00% # Class of executed instruction
system.cpu.op_class::SimdAdd                        0      0.00%     25.00% # Class of executed instruction
system.cpu.op_class::SimdAddAcc                     0      0.00%     25.00% # Class of executed instruction
system.cpu.op_class::SimdAlu                        0      0.00%     25.00% # Class of executed instruction
system.cpu.op_class::SimdCmp                        0      0.00%     25.00% # Class of executed instruction
system.cpu.op_class::SimdCvt                        0      0.00%     25.00% # Class of executed instruction
system.cpu.op_class::SimdMisc                       0      0.00%     25.00% # Class of executed instruction
system.cpu.op_class::SimdMult                       0      0.00%     25.00% # Class of executed instruction
system.cpu.op_class::SimdMultAcc                    0      0.00%     25.00% # Class of executed instruction
system.cpu.op_class::SimdShift                      0      0.00%     25.00% # Class of executed instruction
system.cpu.op_class::SimdShiftAcc                   0      0.00%     25.00% # Class of executed instruction
system.cpu.op_class::SimdDiv                        0      0.00%     25.00% # Class of executed instruction
system.cpu.op_class::SimdSqrt                       0      0.00%     25.00% # Class of executed instruction
system.cpu.op_class::SimdFloatAdd                   3     12.50%     37.50% # Class of executed instruction
system.cpu.op_class::SimdFloatAlu                   0      0.00%     37.50% # Class of executed instruction
system.cpu.op_class::SimdFloatCmp                   0      0.00%     37.50% # Class of executed instruction
system.cpu.op_class::SimdFloatCvt                   0      0.00%     37.50% # Class of executed instruction
system.cpu.op_class::SimdFloatDiv                   0      0.00%     37.50% # Class of executed instruction
system.cpu.op_class::SimdFloatMisc                  0      0.00%     37.50% # Class of executed instruction
system.cpu.op_class::SimdFloatMult                  7     29.17%     66.67% # Class of executed instruction
system.cpu.op_class::SimdFloatMultAcc               0      0.00%     66.67% # Class of executed instruction
system.cpu.op_class::SimdFloatSqrt                  0      0.00%     66.67% # Class of executed instruction
system.cpu.op_class::SimdReduceAdd                  0      0.00%     66.67% # Class of executed instruction
system.cpu.op_class::SimdReduceAlu                  0      0.00%     66.67% # Class of executed instruction
system.cpu.op_class::SimdReduceCmp                  0      0.00%     66.67% # Class of executed instruction
system.cpu.op_class::SimdFloatReduceAdd             0      0.00%     66.67% # Class of executed instruction
system.cpu.op_class::SimdFloatReduceCmp             0      0.00%     66.67% # Class of executed instruction
system.cpu.op_class::SimdAes                        0      0.00%     66.67% # Class of executed instruction
system.cpu.op_class::SimdAesMix                     0      0.00%     66.67% # Class of executed instruction
system.cpu.op_class::SimdSha1Hash                   0      0.00%     66.67% # Class of executed instruction
system.cpu.op_class::SimdSha1Hash2                  0      0.00%     66.67% # Class of executed instruction
system.cpu.op_class::SimdSha256Hash                 0      0.00%     66.67% # Class of executed instruction
system.cpu.op_class::SimdSha256Hash2                0      0.00%     66.67% # Class of executed instruction
system.cpu.op_class::SimdShaSigma2                  0      0.00%     66.67% # Class of executed instruction
system.cpu.op_class::SimdShaSigma3                  0      0.00%     66.67% # Class of executed instruction
system.cpu.op_class::SimdPredAlu                    0      0.00%     66.67% # Class of executed instruction
system.cpu.op_class::MemRead                        2      8.33%     75.00% # Class of executed instruction
system.cpu.op_class::MemWrite                       2      8.33%     83.33% # Class of executed instruction
system.cpu.op_class::FloatMemRead                   4     16.67%    100.00% # Class of executed instruction
system.cpu.op_class::FloatMemWrite                  0      0.00%    100.00% # Class of executed instruction
system.cpu.op_class::IprAccess                      0      0.00%    100.00% # Class of executed instruction
system.cpu.op_class::InstPrefetch                   0      0.00%    100.00% # Class of executed instruction
system.cpu.op_class::total                         24                       # Class of executed instruction
system.cpu.workload.numSyscalls                     0                       # Number of system calls
system.l3bus.snoop_filter.hit_multi_requests            0                       # Number of requests hitting in the snoop filter with multiple (>1) holders of the requested data.
system.l3bus.snoop_filter.hit_multi_snoops            0                       # Number of snoops hitting in the snoop filter with multiple (>1) holders of the requested data.
system.l3bus.snoop_filter.hit_single_requests            0                       # Number of requests hitting in the snoop filter with a single holder of the requested data.
system.l3bus.snoop_filter.hit_single_snoops            0                       # Number of snoops hitting in the snoop filter with a single holder of the requested data.
system.l3bus.snoop_filter.tot_requests           1375                       # Total number of requests made to the snoop filter.
system.l3bus.snoop_filter.tot_snoops                0                       # Total number of snoops made to the snoop filter.
system.membus.snoop_filter.hit_multi_requests            0                       # Number of requests hitting in the snoop filter with multiple (>1) holders of the requested data.
system.membus.snoop_filter.hit_multi_snoops            0                       # Number of snoops hitting in the snoop filter with multiple (>1) holders of the requested data.
system.membus.snoop_filter.hit_single_requests            0                       # Number of requests hitting in the snoop filter with a single holder of the requested data.
system.membus.snoop_filter.hit_single_snoops            0                       # Number of snoops hitting in the snoop filter with a single holder of the requested data.
system.membus.snoop_filter.tot_requests          1375                       # Total number of requests made to the snoop filter.
system.membus.snoop_filter.tot_snoops               0                       # Total number of snoops made to the snoop filter.
system.switch_cpus.cc_regfile_reads         204544654                       # number of cc regfile reads
system.switch_cpus.cc_regfile_writes        100511445                       # number of cc regfile writes
system.switch_cpus.committedInsts           250000001                       # Number of Instructions Simulated
system.switch_cpus.committedOps             450499466                       # Number of Ops (including micro ops) Simulated
system.switch_cpus.cpi                       0.397858                       # CPI: Cycles Per Instruction
system.switch_cpus.cpi_total                 0.397858                       # CPI: Total CPI of All Threads
system.switch_cpus.fp_regfile_reads         146666194                       # number of floating regfile reads
system.switch_cpus.fp_regfile_writes         84015201                       # number of floating regfile writes
system.switch_cpus.idleCycles                   61362                       # Total number of cycles that the CPU has spent unscheduled due to idling
system.switch_cpus.iew.branchMispredicts      1092594                       # Number of branch mispredicts detected at execute
system.switch_cpus.iew.exec_branches         46302969                       # Number of branches executed
system.switch_cpus.iew.exec_nop                     0                       # number of nop insts executed
system.switch_cpus.iew.exec_rate             4.823104                       # Inst execution rate
system.switch_cpus.iew.exec_refs            140840049                       # number of memory reference insts executed
system.switch_cpus.iew.exec_stores           42655827                       # Number of stores executed
system.switch_cpus.iew.exec_swp                     0                       # number of swp insts executed
system.switch_cpus.iew.iewBlockCycles         6040659                       # Number of cycles IEW is blocking
system.switch_cpus.iew.iewDispLoadInsts     102957431                       # Number of dispatched load instructions
system.switch_cpus.iew.iewDispNonSpecInsts            8                       # Number of dispatched non-speculative instructions
system.switch_cpus.iew.iewDispSquashedInsts          257                       # Number of squashed instructions skipped by dispatch
system.switch_cpus.iew.iewDispStoreInsts     45399203                       # Number of dispatched store instructions
system.switch_cpus.iew.iewDispatchedInsts    502262901                       # Number of instructions dispatched to IQ
system.switch_cpus.iew.iewExecLoadInsts      98184222                       # Number of load instructions executed
system.switch_cpus.iew.iewExecSquashedInsts      3027507                       # Number of squashed instructions skipped in execute
system.switch_cpus.iew.iewExecutedInsts     479727978                       # Number of executed instructions
system.switch_cpus.iew.iewIQFullEvents          10039                       # Number of times the IQ has become full, causing a stall
system.switch_cpus.iew.iewIdleCycles                0                       # Number of cycles IEW is idle
system.switch_cpus.iew.iewLSQFullEvents        183240                       # Number of times the LSQ has become full, causing a stall
system.switch_cpus.iew.iewSquashCycles         993230                       # Number of cycles IEW is squashing
system.switch_cpus.iew.iewUnblockCycles        196963                       # Number of cycles IEW is unblocking
system.switch_cpus.iew.memOrderViolationEvents        17502                       # Number of memory order violations
system.switch_cpus.iew.predictedNotTakenIncorrect       731634                       # Number of branches that were predicted not taken incorrectly
system.switch_cpus.iew.predictedTakenIncorrect       360960                       # Number of branches that were predicted taken incorrectly
system.switch_cpus.iew.wb_consumers         628073972                       # num instructions consuming a value
system.switch_cpus.iew.wb_count             477952286                       # cumulative count of insts written-back
system.switch_cpus.iew.wb_fanout             0.567122                       # average fanout of values written-back
system.switch_cpus.iew.wb_producers         356194643                       # num instructions producing a value
system.switch_cpus.iew.wb_rate               4.805251                       # insts written-back per cycle
system.switch_cpus.iew.wb_sent              479223174                       # cumulative count of insts sent to commit
system.switch_cpus.int_regfile_reads        664491408                       # number of integer regfile reads
system.switch_cpus.int_regfile_writes       299472638                       # number of integer regfile writes
system.switch_cpus.ipc                       2.513458                       # IPC: Instructions Per Cycle
system.switch_cpus.ipc_total                 2.513458                       # IPC: Total IPC of All Threads
system.switch_cpus.iq.FU_type_0::No_OpClass      2621995      0.54%      0.54% # Type of FU issued
system.switch_cpus.iq.FU_type_0::IntAlu     289482091     59.96%     60.51% # Type of FU issued
system.switch_cpus.iq.FU_type_0::IntMult       962240      0.20%     60.71% # Type of FU issued
system.switch_cpus.iq.FU_type_0::IntDiv             0      0.00%     60.71% # Type of FU issued
system.switch_cpus.iq.FU_type_0::FloatAdd      1082730      0.22%     60.93% # Type of FU issued
system.switch_cpus.iq.FU_type_0::FloatCmp            0      0.00%     60.93% # Type of FU issued
system.switch_cpus.iq.FU_type_0::FloatCvt            0      0.00%     60.93% # Type of FU issued
system.switch_cpus.iq.FU_type_0::FloatMult            0      0.00%     60.93% # Type of FU issued
system.switch_cpus.iq.FU_type_0::FloatMultAcc            0      0.00%     60.93% # Type of FU issued
system.switch_cpus.iq.FU_type_0::FloatDiv            0      0.00%     60.93% # Type of FU issued
system.switch_cpus.iq.FU_type_0::FloatMisc            0      0.00%     60.93% # Type of FU issued
system.switch_cpus.iq.FU_type_0::FloatSqrt            0      0.00%     60.93% # Type of FU issued
system.switch_cpus.iq.FU_type_0::SimdAdd            0      0.00%     60.93% # Type of FU issued
system.switch_cpus.iq.FU_type_0::SimdAddAcc            0      0.00%     60.93% # Type of FU issued
system.switch_cpus.iq.FU_type_0::SimdAlu      2983129      0.62%     61.55% # Type of FU issued
system.switch_cpus.iq.FU_type_0::SimdCmp            0      0.00%     61.55% # Type of FU issued
system.switch_cpus.iq.FU_type_0::SimdCvt            0      0.00%     61.55% # Type of FU issued
system.switch_cpus.iq.FU_type_0::SimdMisc        80077      0.02%     61.57% # Type of FU issued
system.switch_cpus.iq.FU_type_0::SimdMult            0      0.00%     61.57% # Type of FU issued
system.switch_cpus.iq.FU_type_0::SimdMultAcc            0      0.00%     61.57% # Type of FU issued
system.switch_cpus.iq.FU_type_0::SimdShift            0      0.00%     61.57% # Type of FU issued
system.switch_cpus.iq.FU_type_0::SimdShiftAcc            0      0.00%     61.57% # Type of FU issued
system.switch_cpus.iq.FU_type_0::SimdDiv            0      0.00%     61.57% # Type of FU issued
system.switch_cpus.iq.FU_type_0::SimdSqrt            0      0.00%     61.57% # Type of FU issued
system.switch_cpus.iq.FU_type_0::SimdFloatAdd     17493630      3.62%     65.19% # Type of FU issued
system.switch_cpus.iq.FU_type_0::SimdFloatAlu            0      0.00%     65.19% # Type of FU issued
system.switch_cpus.iq.FU_type_0::SimdFloatCmp        61424      0.01%     65.20% # Type of FU issued
system.switch_cpus.iq.FU_type_0::SimdFloatCvt      7580325      1.57%     66.77% # Type of FU issued
system.switch_cpus.iq.FU_type_0::SimdFloatDiv       605499      0.13%     66.90% # Type of FU issued
system.switch_cpus.iq.FU_type_0::SimdFloatMisc            0      0.00%     66.90% # Type of FU issued
system.switch_cpus.iq.FU_type_0::SimdFloatMult     17349940      3.59%     70.49% # Type of FU issued
system.switch_cpus.iq.FU_type_0::SimdFloatMultAcc            0      0.00%     70.49% # Type of FU issued
system.switch_cpus.iq.FU_type_0::SimdFloatSqrt        38395      0.01%     70.50% # Type of FU issued
system.switch_cpus.iq.FU_type_0::SimdReduceAdd            0      0.00%     70.50% # Type of FU issued
system.switch_cpus.iq.FU_type_0::SimdReduceAlu            0      0.00%     70.50% # Type of FU issued
system.switch_cpus.iq.FU_type_0::SimdReduceCmp            0      0.00%     70.50% # Type of FU issued
system.switch_cpus.iq.FU_type_0::SimdFloatReduceAdd            0      0.00%     70.50% # Type of FU issued
system.switch_cpus.iq.FU_type_0::SimdFloatReduceCmp            0      0.00%     70.50% # Type of FU issued
system.switch_cpus.iq.FU_type_0::SimdAes            0      0.00%     70.50% # Type of FU issued
system.switch_cpus.iq.FU_type_0::SimdAesMix            0      0.00%     70.50% # Type of FU issued
system.switch_cpus.iq.FU_type_0::SimdSha1Hash            0      0.00%     70.50% # Type of FU issued
system.switch_cpus.iq.FU_type_0::SimdSha1Hash2            0      0.00%     70.50% # Type of FU issued
system.switch_cpus.iq.FU_type_0::SimdSha256Hash            0      0.00%     70.50% # Type of FU issued
system.switch_cpus.iq.FU_type_0::SimdSha256Hash2            0      0.00%     70.50% # Type of FU issued
system.switch_cpus.iq.FU_type_0::SimdShaSigma2            0      0.00%     70.50% # Type of FU issued
system.switch_cpus.iq.FU_type_0::SimdShaSigma3            0      0.00%     70.50% # Type of FU issued
system.switch_cpus.iq.FU_type_0::SimdPredAlu            0      0.00%     70.50% # Type of FU issued
system.switch_cpus.iq.FU_type_0::MemRead     61663791     12.77%     83.27% # Type of FU issued
system.switch_cpus.iq.FU_type_0::MemWrite     36576163      7.58%     90.85% # Type of FU issued
system.switch_cpus.iq.FU_type_0::FloatMemRead     37784444      7.83%     98.68% # Type of FU issued
system.switch_cpus.iq.FU_type_0::FloatMemWrite      6389618      1.32%    100.00% # Type of FU issued
system.switch_cpus.iq.FU_type_0::IprAccess            0      0.00%    100.00% # Type of FU issued
system.switch_cpus.iq.FU_type_0::InstPrefetch            0      0.00%    100.00% # Type of FU issued
system.switch_cpus.iq.FU_type_0::total      482755491                       # Type of FU issued
system.switch_cpus.iq.fp_alu_accesses       102884968                       # Number of floating point alu accesses
system.switch_cpus.iq.fp_inst_queue_reads    200764556                       # Number of floating instruction queue reads
system.switch_cpus.iq.fp_inst_queue_wakeup_accesses     96435289                       # Number of floating instruction queue wakeup accesses
system.switch_cpus.iq.fp_inst_queue_writes    108422980                       # Number of floating instruction queue writes
system.switch_cpus.iq.fu_busy_cnt            13680007                       # FU busy when requested
system.switch_cpus.iq.fu_busy_rate           0.028337                       # FU busy rate (busy events/executed inst)
system.switch_cpus.iq.fu_full::No_OpClass            0      0.00%      0.00% # attempts to use FU when none available
system.switch_cpus.iq.fu_full::IntAlu         4037523     29.51%     29.51% # attempts to use FU when none available
system.switch_cpus.iq.fu_full::IntMult              0      0.00%     29.51% # attempts to use FU when none available
system.switch_cpus.iq.fu_full::IntDiv               0      0.00%     29.51% # attempts to use FU when none available
system.switch_cpus.iq.fu_full::FloatAdd          9885      0.07%     29.59% # attempts to use FU when none available
system.switch_cpus.iq.fu_full::FloatCmp             0      0.00%     29.59% # attempts to use FU when none available
system.switch_cpus.iq.fu_full::FloatCvt             0      0.00%     29.59% # attempts to use FU when none available
system.switch_cpus.iq.fu_full::FloatMult            0      0.00%     29.59% # attempts to use FU when none available
system.switch_cpus.iq.fu_full::FloatMultAcc            0      0.00%     29.59% # attempts to use FU when none available
system.switch_cpus.iq.fu_full::FloatDiv             0      0.00%     29.59% # attempts to use FU when none available
system.switch_cpus.iq.fu_full::FloatMisc            0      0.00%     29.59% # attempts to use FU when none available
system.switch_cpus.iq.fu_full::FloatSqrt            0      0.00%     29.59% # attempts to use FU when none available
system.switch_cpus.iq.fu_full::SimdAdd              0      0.00%     29.59% # attempts to use FU when none available
system.switch_cpus.iq.fu_full::SimdAddAcc            0      0.00%     29.59% # attempts to use FU when none available
system.switch_cpus.iq.fu_full::SimdAlu         217353      1.59%     31.18% # attempts to use FU when none available
system.switch_cpus.iq.fu_full::SimdCmp              0      0.00%     31.18% # attempts to use FU when none available
system.switch_cpus.iq.fu_full::SimdCvt              0      0.00%     31.18% # attempts to use FU when none available
system.switch_cpus.iq.fu_full::SimdMisc             2      0.00%     31.18% # attempts to use FU when none available
system.switch_cpus.iq.fu_full::SimdMult             0      0.00%     31.18% # attempts to use FU when none available
system.switch_cpus.iq.fu_full::SimdMultAcc            0      0.00%     31.18% # attempts to use FU when none available
system.switch_cpus.iq.fu_full::SimdShift            0      0.00%     31.18% # attempts to use FU when none available
system.switch_cpus.iq.fu_full::SimdShiftAcc            0      0.00%     31.18% # attempts to use FU when none available
system.switch_cpus.iq.fu_full::SimdDiv              0      0.00%     31.18% # attempts to use FU when none available
system.switch_cpus.iq.fu_full::SimdSqrt             0      0.00%     31.18% # attempts to use FU when none available
system.switch_cpus.iq.fu_full::SimdFloatAdd       506576      3.70%     34.88% # attempts to use FU when none available
system.switch_cpus.iq.fu_full::SimdFloatAlu            0      0.00%     34.88% # attempts to use FU when none available
system.switch_cpus.iq.fu_full::SimdFloatCmp            0      0.00%     34.88% # attempts to use FU when none available
system.switch_cpus.iq.fu_full::SimdFloatCvt        54519      0.40%     35.28% # attempts to use FU when none available
system.switch_cpus.iq.fu_full::SimdFloatDiv            0      0.00%     35.28% # attempts to use FU when none available
system.switch_cpus.iq.fu_full::SimdFloatMisc            0      0.00%     35.28% # attempts to use FU when none available
system.switch_cpus.iq.fu_full::SimdFloatMult       340595      2.49%     37.77% # attempts to use FU when none available
system.switch_cpus.iq.fu_full::SimdFloatMultAcc            0      0.00%     37.77% # attempts to use FU when none available
system.switch_cpus.iq.fu_full::SimdFloatSqrt            0      0.00%     37.77% # attempts to use FU when none available
system.switch_cpus.iq.fu_full::SimdReduceAdd            0      0.00%     37.77% # attempts to use FU when none available
system.switch_cpus.iq.fu_full::SimdReduceAlu            0      0.00%     37.77% # attempts to use FU when none available
system.switch_cpus.iq.fu_full::SimdReduceCmp            0      0.00%     37.77% # attempts to use FU when none available
system.switch_cpus.iq.fu_full::SimdFloatReduceAdd            0      0.00%     37.77% # attempts to use FU when none available
system.switch_cpus.iq.fu_full::SimdFloatReduceCmp            0      0.00%     37.77% # attempts to use FU when none available
system.switch_cpus.iq.fu_full::SimdAes              0      0.00%     37.77% # attempts to use FU when none available
system.switch_cpus.iq.fu_full::SimdAesMix            0      0.00%     37.77% # attempts to use FU when none available
system.switch_cpus.iq.fu_full::SimdSha1Hash            0      0.00%     37.77% # attempts to use FU when none available
system.switch_cpus.iq.fu_full::SimdSha1Hash2            0      0.00%     37.77% # attempts to use FU when none available
system.switch_cpus.iq.fu_full::SimdSha256Hash            0      0.00%     37.77% # attempts to use FU when none available
system.switch_cpus.iq.fu_full::SimdSha256Hash2            0      0.00%     37.77% # attempts to use FU when none available
system.switch_cpus.iq.fu_full::SimdShaSigma2            0      0.00%     37.77% # attempts to use FU when none available
system.switch_cpus.iq.fu_full::SimdShaSigma3            0      0.00%     37.77% # attempts to use FU when none available
system.switch_cpus.iq.fu_full::SimdPredAlu            0      0.00%     37.77% # attempts to use FU when none available
system.switch_cpus.iq.fu_full::MemRead        3282660     24.00%     61.76% # attempts to use FU when none available
system.switch_cpus.iq.fu_full::MemWrite       1161215      8.49%     70.25% # attempts to use FU when none available
system.switch_cpus.iq.fu_full::FloatMemRead      3537731     25.86%     96.11% # attempts to use FU when none available
system.switch_cpus.iq.fu_full::FloatMemWrite       531948      3.89%    100.00% # attempts to use FU when none available
system.switch_cpus.iq.fu_full::IprAccess            0      0.00%    100.00% # attempts to use FU when none available
system.switch_cpus.iq.fu_full::InstPrefetch            0      0.00%    100.00% # attempts to use FU when none available
system.switch_cpus.iq.int_alu_accesses      390928535                       # Number of integer alu accesses
system.switch_cpus.iq.int_inst_queue_reads    878536392                       # Number of integer instruction queue reads
system.switch_cpus.iq.int_inst_queue_wakeup_accesses    381516997                       # Number of integer instruction queue wakeup accesses
system.switch_cpus.iq.int_inst_queue_writes    445620592                       # Number of integer instruction queue writes
system.switch_cpus.iq.iqInstsAdded          502262889                       # Number of instructions added to the IQ (excludes non-spec)
system.switch_cpus.iq.iqInstsIssued         482755491                       # Number of instructions issued
system.switch_cpus.iq.iqNonSpecInstsAdded           12                       # Number of non-speculative instructions added to the IQ
system.switch_cpus.iq.iqSquashedInstsExamined     51763360                       # Number of squashed instructions iterated over during squash; mainly for profiling
system.switch_cpus.iq.iqSquashedInstsIssued       706753                       # Number of squashed instructions issued
system.switch_cpus.iq.iqSquashedNonSpecRemoved           12                       # Number of squashed non-spec instructions that were removed
system.switch_cpus.iq.iqSquashedOperandsExamined     74996581                       # Number of squashed operands that are examined and possibly removed from graph
system.switch_cpus.iq.issued_per_cycle::samples     99403212                       # Number of insts issued each cycle
system.switch_cpus.iq.issued_per_cycle::mean     4.856538                       # Number of insts issued each cycle
system.switch_cpus.iq.issued_per_cycle::stdev     2.689071                       # Number of insts issued each cycle
system.switch_cpus.iq.issued_per_cycle::underflows            0      0.00%      0.00% # Number of insts issued each cycle
system.switch_cpus.iq.issued_per_cycle::0     13733420     13.82%     13.82% # Number of insts issued each cycle
system.switch_cpus.iq.issued_per_cycle::1      2718841      2.74%     16.55% # Number of insts issued each cycle
system.switch_cpus.iq.issued_per_cycle::2      5144220      5.18%     21.73% # Number of insts issued each cycle
system.switch_cpus.iq.issued_per_cycle::3      6694900      6.74%     28.46% # Number of insts issued each cycle
system.switch_cpus.iq.issued_per_cycle::4      9444903      9.50%     37.96% # Number of insts issued each cycle
system.switch_cpus.iq.issued_per_cycle::5     12229618     12.30%     50.27% # Number of insts issued each cycle
system.switch_cpus.iq.issued_per_cycle::6     15179509     15.27%     65.54% # Number of insts issued each cycle
system.switch_cpus.iq.issued_per_cycle::7     14403654     14.49%     80.03% # Number of insts issued each cycle
system.switch_cpus.iq.issued_per_cycle::8     19854147     19.97%    100.00% # Number of insts issued each cycle
system.switch_cpus.iq.issued_per_cycle::overflows            0      0.00%    100.00% # Number of insts issued each cycle
system.switch_cpus.iq.issued_per_cycle::min_value            0                       # Number of insts issued each cycle
system.switch_cpus.iq.issued_per_cycle::max_value            8                       # Number of insts issued each cycle
system.switch_cpus.iq.issued_per_cycle::total     99403212                       # Number of insts issued each cycle
system.switch_cpus.iq.rate                   4.853542                       # Inst issue rate
system.switch_cpus.iq.vec_alu_accesses              0                       # Number of vector alu accesses
system.switch_cpus.iq.vec_inst_queue_reads            0                       # Number of vector instruction queue reads
system.switch_cpus.iq.vec_inst_queue_wakeup_accesses            0                       # Number of vector instruction queue wakeup accesses
system.switch_cpus.iq.vec_inst_queue_writes            0                       # Number of vector instruction queue writes
system.switch_cpus.memDep0.conflictingLoads      5206152                       # Number of conflicting loads.
system.switch_cpus.memDep0.conflictingStores      2549655                       # Number of conflicting stores.
system.switch_cpus.memDep0.insertedLoads    102957431                       # Number of loads inserted to the mem dependence unit.
system.switch_cpus.memDep0.insertedStores     45399203                       # Number of stores inserted to the mem dependence unit.
system.switch_cpus.misc_regfile_reads       236411935                       # number of misc regfile reads
system.switch_cpus.misc_regfile_writes              1                       # number of misc regfile writes
system.switch_cpus.numCycles                 99464574                       # number of cpu cycles simulated
system.switch_cpus.numWorkItemsCompleted            0                       # number of work items this cpu completed
system.switch_cpus.numWorkItemsStarted              0                       # number of work items this cpu started
system.switch_cpus.timesIdled                     346                       # Number of times that the entire CPU went into an idle state and unscheduled itself
system.clk_domain.clock                           333                       # Clock period in ticks
system.cpu.dcache.demand_hits::.cpu.data            4                       # number of demand (read+write) hits
system.cpu.dcache.demand_hits::.switch_cpus.data    116794891                       # number of demand (read+write) hits
system.cpu.dcache.demand_hits::total        116794895                       # number of demand (read+write) hits
system.cpu.dcache.overall_hits::.cpu.data            4                       # number of overall hits
system.cpu.dcache.overall_hits::.switch_cpus.data    116796013                       # number of overall hits
system.cpu.dcache.overall_hits::total       116796017                       # number of overall hits
system.cpu.dcache.demand_misses::.cpu.data            4                       # number of demand (read+write) misses
system.cpu.dcache.demand_misses::.switch_cpus.data      3405905                       # number of demand (read+write) misses
system.cpu.dcache.demand_misses::total        3405909                       # number of demand (read+write) misses
system.cpu.dcache.overall_misses::.cpu.data            4                       # number of overall misses
system.cpu.dcache.overall_misses::.switch_cpus.data      3428940                       # number of overall misses
system.cpu.dcache.overall_misses::total       3428944                       # number of overall misses
system.cpu.dcache.demand_miss_latency::.switch_cpus.data  16271120259                       # number of demand (read+write) miss cycles
system.cpu.dcache.demand_miss_latency::total  16271120259                       # number of demand (read+write) miss cycles
system.cpu.dcache.overall_miss_latency::.switch_cpus.data  16271120259                       # number of overall miss cycles
system.cpu.dcache.overall_miss_latency::total  16271120259                       # number of overall miss cycles
system.cpu.dcache.demand_accesses::.cpu.data            8                       # number of demand (read+write) accesses
system.cpu.dcache.demand_accesses::.switch_cpus.data    120200796                       # number of demand (read+write) accesses
system.cpu.dcache.demand_accesses::total    120200804                       # number of demand (read+write) accesses
system.cpu.dcache.overall_accesses::.cpu.data            8                       # number of overall (read+write) accesses
system.cpu.dcache.overall_accesses::.switch_cpus.data    120224953                       # number of overall (read+write) accesses
system.cpu.dcache.overall_accesses::total    120224961                       # number of overall (read+write) accesses
system.cpu.dcache.demand_miss_rate::.cpu.data     0.500000                       # miss rate for demand accesses
system.cpu.dcache.demand_miss_rate::.switch_cpus.data     0.028335                       # miss rate for demand accesses
system.cpu.dcache.demand_miss_rate::total     0.028335                       # miss rate for demand accesses
system.cpu.dcache.overall_miss_rate::.cpu.data     0.500000                       # miss rate for overall accesses
system.cpu.dcache.overall_miss_rate::.switch_cpus.data     0.028521                       # miss rate for overall accesses
system.cpu.dcache.overall_miss_rate::total     0.028521                       # miss rate for overall accesses
system.cpu.dcache.demand_avg_miss_latency::.switch_cpus.data  4777.326514                       # average overall miss latency
system.cpu.dcache.demand_avg_miss_latency::total  4777.320903                       # average overall miss latency
system.cpu.dcache.overall_avg_miss_latency::.switch_cpus.data  4745.233296                       # average overall miss latency
system.cpu.dcache.overall_avg_miss_latency::total  4745.227761                       # average overall miss latency
system.cpu.dcache.blocked_cycles::no_mshrs            0                       # number of cycles access was blocked
system.cpu.dcache.blocked_cycles::no_targets            0                       # number of cycles access was blocked
system.cpu.dcache.blocked::no_mshrs                 0                       # number of cycles access was blocked
system.cpu.dcache.blocked::no_targets               0                       # number of cycles access was blocked
system.cpu.dcache.avg_blocked_cycles::no_mshrs          nan                       # average number of cycles each access was blocked
system.cpu.dcache.avg_blocked_cycles::no_targets          nan                       # average number of cycles each access was blocked
system.cpu.dcache.writebacks::.writebacks      1721199                       # number of writebacks
system.cpu.dcache.writebacks::total           1721199                       # number of writebacks
system.cpu.dcache.demand_mshr_hits::.switch_cpus.data      1691867                       # number of demand (read+write) MSHR hits
system.cpu.dcache.demand_mshr_hits::total      1691867                       # number of demand (read+write) MSHR hits
system.cpu.dcache.overall_mshr_hits::.switch_cpus.data      1691867                       # number of overall MSHR hits
system.cpu.dcache.overall_mshr_hits::total      1691867                       # number of overall MSHR hits
system.cpu.dcache.demand_mshr_misses::.switch_cpus.data      1714038                       # number of demand (read+write) MSHR misses
system.cpu.dcache.demand_mshr_misses::total      1714038                       # number of demand (read+write) MSHR misses
system.cpu.dcache.overall_mshr_misses::.switch_cpus.data      1721717                       # number of overall MSHR misses
system.cpu.dcache.overall_mshr_misses::total      1721717                       # number of overall MSHR misses
system.cpu.dcache.demand_mshr_miss_latency::.switch_cpus.data   7813733112                       # number of demand (read+write) MSHR miss cycles
system.cpu.dcache.demand_mshr_miss_latency::total   7813733112                       # number of demand (read+write) MSHR miss cycles
system.cpu.dcache.overall_mshr_miss_latency::.switch_cpus.data   7847142336                       # number of overall MSHR miss cycles
system.cpu.dcache.overall_mshr_miss_latency::total   7847142336                       # number of overall MSHR miss cycles
system.cpu.dcache.demand_mshr_miss_rate::.switch_cpus.data     0.014260                       # mshr miss rate for demand accesses
system.cpu.dcache.demand_mshr_miss_rate::total     0.014260                       # mshr miss rate for demand accesses
system.cpu.dcache.overall_mshr_miss_rate::.switch_cpus.data     0.014321                       # mshr miss rate for overall accesses
system.cpu.dcache.overall_mshr_miss_rate::total     0.014321                       # mshr miss rate for overall accesses
system.cpu.dcache.demand_avg_mshr_miss_latency::.switch_cpus.data  4558.669710                       # average overall mshr miss latency
system.cpu.dcache.demand_avg_mshr_miss_latency::total  4558.669710                       # average overall mshr miss latency
system.cpu.dcache.overall_avg_mshr_miss_latency::.switch_cpus.data  4557.742263                       # average overall mshr miss latency
system.cpu.dcache.overall_avg_mshr_miss_latency::total  4557.742263                       # average overall mshr miss latency
system.cpu.dcache.replacements                1721199                       # number of replacements
system.cpu.dcache.ReadReq_hits::.cpu.data            3                       # number of ReadReq hits
system.cpu.dcache.ReadReq_hits::.switch_cpus.data     76714996                       # number of ReadReq hits
system.cpu.dcache.ReadReq_hits::total        76714999                       # number of ReadReq hits
system.cpu.dcache.ReadReq_misses::.cpu.data            3                       # number of ReadReq misses
system.cpu.dcache.ReadReq_misses::.switch_cpus.data      3068654                       # number of ReadReq misses
system.cpu.dcache.ReadReq_misses::total       3068657                       # number of ReadReq misses
system.cpu.dcache.ReadReq_miss_latency::.switch_cpus.data  14619928770                       # number of ReadReq miss cycles
system.cpu.dcache.ReadReq_miss_latency::total  14619928770                       # number of ReadReq miss cycles
system.cpu.dcache.ReadReq_accesses::.cpu.data            6                       # number of ReadReq accesses(hits+misses)
system.cpu.dcache.ReadReq_accesses::.switch_cpus.data     79783650                       # number of ReadReq accesses(hits+misses)
system.cpu.dcache.ReadReq_accesses::total     79783656                       # number of ReadReq accesses(hits+misses)
system.cpu.dcache.ReadReq_miss_rate::.cpu.data     0.500000                       # miss rate for ReadReq accesses
system.cpu.dcache.ReadReq_miss_rate::.switch_cpus.data     0.038462                       # miss rate for ReadReq accesses
system.cpu.dcache.ReadReq_miss_rate::total     0.038462                       # miss rate for ReadReq accesses
system.cpu.dcache.ReadReq_avg_miss_latency::.switch_cpus.data  4764.280616                       # average ReadReq miss latency
system.cpu.dcache.ReadReq_avg_miss_latency::total  4764.275959                       # average ReadReq miss latency
system.cpu.dcache.ReadReq_mshr_hits::.switch_cpus.data      1685078                       # number of ReadReq MSHR hits
system.cpu.dcache.ReadReq_mshr_hits::total      1685078                       # number of ReadReq MSHR hits
system.cpu.dcache.ReadReq_mshr_misses::.switch_cpus.data      1383576                       # number of ReadReq MSHR misses
system.cpu.dcache.ReadReq_mshr_misses::total      1383576                       # number of ReadReq MSHR misses
system.cpu.dcache.ReadReq_mshr_miss_latency::.switch_cpus.data   6292340694                       # number of ReadReq MSHR miss cycles
system.cpu.dcache.ReadReq_mshr_miss_latency::total   6292340694                       # number of ReadReq MSHR miss cycles
system.cpu.dcache.ReadReq_mshr_miss_rate::.switch_cpus.data     0.017342                       # mshr miss rate for ReadReq accesses
system.cpu.dcache.ReadReq_mshr_miss_rate::total     0.017342                       # mshr miss rate for ReadReq accesses
system.cpu.dcache.ReadReq_avg_mshr_miss_latency::.switch_cpus.data  4547.882223                       # average ReadReq mshr miss latency
system.cpu.dcache.ReadReq_avg_mshr_miss_latency::total  4547.882223                       # average ReadReq mshr miss latency
system.cpu.dcache.WriteReq_hits::.cpu.data            1                       # number of WriteReq hits
system.cpu.dcache.WriteReq_hits::.switch_cpus.data     40079895                       # number of WriteReq hits
system.cpu.dcache.WriteReq_hits::total       40079896                       # number of WriteReq hits
system.cpu.dcache.WriteReq_misses::.cpu.data            1                       # number of WriteReq misses
system.cpu.dcache.WriteReq_misses::.switch_cpus.data       337251                       # number of WriteReq misses
system.cpu.dcache.WriteReq_misses::total       337252                       # number of WriteReq misses
system.cpu.dcache.WriteReq_miss_latency::.switch_cpus.data   1651191489                       # number of WriteReq miss cycles
system.cpu.dcache.WriteReq_miss_latency::total   1651191489                       # number of WriteReq miss cycles
system.cpu.dcache.WriteReq_accesses::.cpu.data            2                       # number of WriteReq accesses(hits+misses)
system.cpu.dcache.WriteReq_accesses::.switch_cpus.data     40417146                       # number of WriteReq accesses(hits+misses)
system.cpu.dcache.WriteReq_accesses::total     40417148                       # number of WriteReq accesses(hits+misses)
system.cpu.dcache.WriteReq_miss_rate::.cpu.data     0.500000                       # miss rate for WriteReq accesses
system.cpu.dcache.WriteReq_miss_rate::.switch_cpus.data     0.008344                       # miss rate for WriteReq accesses
system.cpu.dcache.WriteReq_miss_rate::total     0.008344                       # miss rate for WriteReq accesses
system.cpu.dcache.WriteReq_avg_miss_latency::.switch_cpus.data  4896.031410                       # average WriteReq miss latency
system.cpu.dcache.WriteReq_avg_miss_latency::total  4896.016892                       # average WriteReq miss latency
system.cpu.dcache.WriteReq_mshr_hits::.switch_cpus.data         6789                       # number of WriteReq MSHR hits
system.cpu.dcache.WriteReq_mshr_hits::total         6789                       # number of WriteReq MSHR hits
system.cpu.dcache.WriteReq_mshr_misses::.switch_cpus.data       330462                       # number of WriteReq MSHR misses
system.cpu.dcache.WriteReq_mshr_misses::total       330462                       # number of WriteReq MSHR misses
system.cpu.dcache.WriteReq_mshr_miss_latency::.switch_cpus.data   1521392418                       # number of WriteReq MSHR miss cycles
system.cpu.dcache.WriteReq_mshr_miss_latency::total   1521392418                       # number of WriteReq MSHR miss cycles
system.cpu.dcache.WriteReq_mshr_miss_rate::.switch_cpus.data     0.008176                       # mshr miss rate for WriteReq accesses
system.cpu.dcache.WriteReq_mshr_miss_rate::total     0.008176                       # mshr miss rate for WriteReq accesses
system.cpu.dcache.WriteReq_avg_mshr_miss_latency::.switch_cpus.data  4603.834686                       # average WriteReq mshr miss latency
system.cpu.dcache.WriteReq_avg_mshr_miss_latency::total  4603.834686                       # average WriteReq mshr miss latency
system.cpu.dcache.SoftPFReq_hits::.switch_cpus.data         1122                       # number of SoftPFReq hits
system.cpu.dcache.SoftPFReq_hits::total          1122                       # number of SoftPFReq hits
system.cpu.dcache.SoftPFReq_misses::.switch_cpus.data        23035                       # number of SoftPFReq misses
system.cpu.dcache.SoftPFReq_misses::total        23035                       # number of SoftPFReq misses
system.cpu.dcache.SoftPFReq_accesses::.switch_cpus.data        24157                       # number of SoftPFReq accesses(hits+misses)
system.cpu.dcache.SoftPFReq_accesses::total        24157                       # number of SoftPFReq accesses(hits+misses)
system.cpu.dcache.SoftPFReq_miss_rate::.switch_cpus.data     0.953554                       # miss rate for SoftPFReq accesses
system.cpu.dcache.SoftPFReq_miss_rate::total     0.953554                       # miss rate for SoftPFReq accesses
system.cpu.dcache.SoftPFReq_mshr_misses::.switch_cpus.data         7679                       # number of SoftPFReq MSHR misses
system.cpu.dcache.SoftPFReq_mshr_misses::total         7679                       # number of SoftPFReq MSHR misses
system.cpu.dcache.SoftPFReq_mshr_miss_latency::.switch_cpus.data     33409224                       # number of SoftPFReq MSHR miss cycles
system.cpu.dcache.SoftPFReq_mshr_miss_latency::total     33409224                       # number of SoftPFReq MSHR miss cycles
system.cpu.dcache.SoftPFReq_mshr_miss_rate::.switch_cpus.data     0.317879                       # mshr miss rate for SoftPFReq accesses
system.cpu.dcache.SoftPFReq_mshr_miss_rate::total     0.317879                       # mshr miss rate for SoftPFReq accesses
system.cpu.dcache.SoftPFReq_avg_mshr_miss_latency::.switch_cpus.data  4350.725876                       # average SoftPFReq mshr miss latency
system.cpu.dcache.SoftPFReq_avg_mshr_miss_latency::total  4350.725876                       # average SoftPFReq mshr miss latency
system.cpu.dcache.power_state.pwrStateResidencyTicks::UNDEFINED 17928127275651                       # Cumulative time (in ticks) in various power states
system.cpu.dcache.tags.tagsinuse           506.245643                       # Cycle average of tags in use
system.cpu.dcache.tags.total_refs           118517742                       # Total number of references to valid blocks.
system.cpu.dcache.tags.sampled_refs           1721711                       # Sample count of references to valid blocks.
system.cpu.dcache.tags.avg_refs             68.837187                       # Average number of references to valid blocks.
system.cpu.dcache.tags.warmup_cycle      17895005562852                       # Cycle when the warmup percentage was hit.
system.cpu.dcache.tags.occ_blocks::.cpu.data     3.001639                       # Average occupied blocks per requestor
system.cpu.dcache.tags.occ_blocks::.switch_cpus.data   503.244003                       # Average occupied blocks per requestor
system.cpu.dcache.tags.occ_percent::.cpu.data     0.005863                       # Average percentage of cache occupancy
system.cpu.dcache.tags.occ_percent::.switch_cpus.data     0.982898                       # Average percentage of cache occupancy
system.cpu.dcache.tags.occ_percent::total     0.988761                       # Average percentage of cache occupancy
system.cpu.dcache.tags.occ_task_id_blocks::1024          512                       # Occupied blocks per task id
system.cpu.dcache.tags.age_task_id_blocks_1024::0          157                       # Occupied blocks per task id
system.cpu.dcache.tags.age_task_id_blocks_1024::1            4                       # Occupied blocks per task id
system.cpu.dcache.tags.age_task_id_blocks_1024::2           15                       # Occupied blocks per task id
system.cpu.dcache.tags.age_task_id_blocks_1024::3           67                       # Occupied blocks per task id
system.cpu.dcache.tags.age_task_id_blocks_1024::4          269                       # Occupied blocks per task id
system.cpu.dcache.tags.occ_task_id_percent::1024            1                       # Percentage of cache occupancy per task id
system.cpu.dcache.tags.tag_accesses         963521399                       # Number of tag accesses
system.cpu.dcache.tags.data_accesses        963521399                       # Number of data accesses
system.cpu.dcache.tags.power_state.pwrStateResidencyTicks::UNDEFINED 17928127275651                       # Cumulative time (in ticks) in various power states
system.cpu.dtb.rdAccesses                           6                       # TLB accesses on read requests
system.cpu.dtb.wrAccesses                           2                       # TLB accesses on write requests
system.cpu.dtb.rdMisses                             0                       # TLB misses on read requests
system.cpu.dtb.wrMisses                             0                       # TLB misses on write requests
system.cpu.dtb.walker.power_state.pwrStateResidencyTicks::UNDEFINED 17928127275651                       # Cumulative time (in ticks) in various power states
system.cpu.icache.demand_hits::.cpu.inst           21                       # number of demand (read+write) hits
system.cpu.icache.demand_hits::.switch_cpus.inst     45450262                       # number of demand (read+write) hits
system.cpu.icache.demand_hits::total         45450283                       # number of demand (read+write) hits
system.cpu.icache.overall_hits::.cpu.inst           21                       # number of overall hits
system.cpu.icache.overall_hits::.switch_cpus.inst     45450262                       # number of overall hits
system.cpu.icache.overall_hits::total        45450283                       # number of overall hits
system.cpu.icache.demand_misses::.cpu.inst            3                       # number of demand (read+write) misses
system.cpu.icache.demand_misses::.switch_cpus.inst          757                       # number of demand (read+write) misses
system.cpu.icache.demand_misses::total            760                       # number of demand (read+write) misses
system.cpu.icache.overall_misses::.cpu.inst            3                       # number of overall misses
system.cpu.icache.overall_misses::.switch_cpus.inst          757                       # number of overall misses
system.cpu.icache.overall_misses::total           760                       # number of overall misses
system.cpu.icache.demand_miss_latency::.switch_cpus.inst     41678946                       # number of demand (read+write) miss cycles
system.cpu.icache.demand_miss_latency::total     41678946                       # number of demand (read+write) miss cycles
system.cpu.icache.overall_miss_latency::.switch_cpus.inst     41678946                       # number of overall miss cycles
system.cpu.icache.overall_miss_latency::total     41678946                       # number of overall miss cycles
system.cpu.icache.demand_accesses::.cpu.inst           24                       # number of demand (read+write) accesses
system.cpu.icache.demand_accesses::.switch_cpus.inst     45451019                       # number of demand (read+write) accesses
system.cpu.icache.demand_accesses::total     45451043                       # number of demand (read+write) accesses
system.cpu.icache.overall_accesses::.cpu.inst           24                       # number of overall (read+write) accesses
system.cpu.icache.overall_accesses::.switch_cpus.inst     45451019                       # number of overall (read+write) accesses
system.cpu.icache.overall_accesses::total     45451043                       # number of overall (read+write) accesses
system.cpu.icache.demand_miss_rate::.cpu.inst     0.125000                       # miss rate for demand accesses
system.cpu.icache.demand_miss_rate::.switch_cpus.inst     0.000017                       # miss rate for demand accesses
system.cpu.icache.demand_miss_rate::total     0.000017                       # miss rate for demand accesses
system.cpu.icache.overall_miss_rate::.cpu.inst     0.125000                       # miss rate for overall accesses
system.cpu.icache.overall_miss_rate::.switch_cpus.inst     0.000017                       # miss rate for overall accesses
system.cpu.icache.overall_miss_rate::total     0.000017                       # miss rate for overall accesses
system.cpu.icache.demand_avg_miss_latency::.switch_cpus.inst 55058.052840                       # average overall miss latency
system.cpu.icache.demand_avg_miss_latency::total 54840.718421                       # average overall miss latency
system.cpu.icache.overall_avg_miss_latency::.switch_cpus.inst 55058.052840                       # average overall miss latency
system.cpu.icache.overall_avg_miss_latency::total 54840.718421                       # average overall miss latency
system.cpu.icache.blocked_cycles::no_mshrs            0                       # number of cycles access was blocked
system.cpu.icache.blocked_cycles::no_targets            0                       # number of cycles access was blocked
system.cpu.icache.blocked::no_mshrs                 0                       # number of cycles access was blocked
system.cpu.icache.blocked::no_targets               0                       # number of cycles access was blocked
system.cpu.icache.avg_blocked_cycles::no_mshrs          nan                       # average number of cycles each access was blocked
system.cpu.icache.avg_blocked_cycles::no_targets          nan                       # average number of cycles each access was blocked
system.cpu.icache.writebacks::.writebacks          236                       # number of writebacks
system.cpu.icache.writebacks::total               236                       # number of writebacks
system.cpu.icache.demand_mshr_hits::.switch_cpus.inst           67                       # number of demand (read+write) MSHR hits
system.cpu.icache.demand_mshr_hits::total           67                       # number of demand (read+write) MSHR hits
system.cpu.icache.overall_mshr_hits::.switch_cpus.inst           67                       # number of overall MSHR hits
system.cpu.icache.overall_mshr_hits::total           67                       # number of overall MSHR hits
system.cpu.icache.demand_mshr_misses::.switch_cpus.inst          690                       # number of demand (read+write) MSHR misses
system.cpu.icache.demand_mshr_misses::total          690                       # number of demand (read+write) MSHR misses
system.cpu.icache.overall_mshr_misses::.switch_cpus.inst          690                       # number of overall MSHR misses
system.cpu.icache.overall_mshr_misses::total          690                       # number of overall MSHR misses
system.cpu.icache.demand_mshr_miss_latency::.switch_cpus.inst     36236727                       # number of demand (read+write) MSHR miss cycles
system.cpu.icache.demand_mshr_miss_latency::total     36236727                       # number of demand (read+write) MSHR miss cycles
system.cpu.icache.overall_mshr_miss_latency::.switch_cpus.inst     36236727                       # number of overall MSHR miss cycles
system.cpu.icache.overall_mshr_miss_latency::total     36236727                       # number of overall MSHR miss cycles
system.cpu.icache.demand_mshr_miss_rate::.switch_cpus.inst     0.000015                       # mshr miss rate for demand accesses
system.cpu.icache.demand_mshr_miss_rate::total     0.000015                       # mshr miss rate for demand accesses
system.cpu.icache.overall_mshr_miss_rate::.switch_cpus.inst     0.000015                       # mshr miss rate for overall accesses
system.cpu.icache.overall_mshr_miss_rate::total     0.000015                       # mshr miss rate for overall accesses
system.cpu.icache.demand_avg_mshr_miss_latency::.switch_cpus.inst 52516.995652                       # average overall mshr miss latency
system.cpu.icache.demand_avg_mshr_miss_latency::total 52516.995652                       # average overall mshr miss latency
system.cpu.icache.overall_avg_mshr_miss_latency::.switch_cpus.inst 52516.995652                       # average overall mshr miss latency
system.cpu.icache.overall_avg_mshr_miss_latency::total 52516.995652                       # average overall mshr miss latency
system.cpu.icache.replacements                    236                       # number of replacements
system.cpu.icache.ReadReq_hits::.cpu.inst           21                       # number of ReadReq hits
system.cpu.icache.ReadReq_hits::.switch_cpus.inst     45450262                       # number of ReadReq hits
system.cpu.icache.ReadReq_hits::total        45450283                       # number of ReadReq hits
system.cpu.icache.ReadReq_misses::.cpu.inst            3                       # number of ReadReq misses
system.cpu.icache.ReadReq_misses::.switch_cpus.inst          757                       # number of ReadReq misses
system.cpu.icache.ReadReq_misses::total           760                       # number of ReadReq misses
system.cpu.icache.ReadReq_miss_latency::.switch_cpus.inst     41678946                       # number of ReadReq miss cycles
system.cpu.icache.ReadReq_miss_latency::total     41678946                       # number of ReadReq miss cycles
system.cpu.icache.ReadReq_accesses::.cpu.inst           24                       # number of ReadReq accesses(hits+misses)
system.cpu.icache.ReadReq_accesses::.switch_cpus.inst     45451019                       # number of ReadReq accesses(hits+misses)
system.cpu.icache.ReadReq_accesses::total     45451043                       # number of ReadReq accesses(hits+misses)
system.cpu.icache.ReadReq_miss_rate::.cpu.inst     0.125000                       # miss rate for ReadReq accesses
system.cpu.icache.ReadReq_miss_rate::.switch_cpus.inst     0.000017                       # miss rate for ReadReq accesses
system.cpu.icache.ReadReq_miss_rate::total     0.000017                       # miss rate for ReadReq accesses
system.cpu.icache.ReadReq_avg_miss_latency::.switch_cpus.inst 55058.052840                       # average ReadReq miss latency
system.cpu.icache.ReadReq_avg_miss_latency::total 54840.718421                       # average ReadReq miss latency
system.cpu.icache.ReadReq_mshr_hits::.switch_cpus.inst           67                       # number of ReadReq MSHR hits
system.cpu.icache.ReadReq_mshr_hits::total           67                       # number of ReadReq MSHR hits
system.cpu.icache.ReadReq_mshr_misses::.switch_cpus.inst          690                       # number of ReadReq MSHR misses
system.cpu.icache.ReadReq_mshr_misses::total          690                       # number of ReadReq MSHR misses
system.cpu.icache.ReadReq_mshr_miss_latency::.switch_cpus.inst     36236727                       # number of ReadReq MSHR miss cycles
system.cpu.icache.ReadReq_mshr_miss_latency::total     36236727                       # number of ReadReq MSHR miss cycles
system.cpu.icache.ReadReq_mshr_miss_rate::.switch_cpus.inst     0.000015                       # mshr miss rate for ReadReq accesses
system.cpu.icache.ReadReq_mshr_miss_rate::total     0.000015                       # mshr miss rate for ReadReq accesses
system.cpu.icache.ReadReq_avg_mshr_miss_latency::.switch_cpus.inst 52516.995652                       # average ReadReq mshr miss latency
system.cpu.icache.ReadReq_avg_mshr_miss_latency::total 52516.995652                       # average ReadReq mshr miss latency
system.cpu.icache.power_state.pwrStateResidencyTicks::UNDEFINED 17928127275651                       # Cumulative time (in ticks) in various power states
system.cpu.icache.tags.tagsinuse           442.340876                       # Cycle average of tags in use
system.cpu.icache.tags.total_refs            45450976                       # Total number of references to valid blocks.
system.cpu.icache.tags.sampled_refs               693                       # Sample count of references to valid blocks.
system.cpu.icache.tags.avg_refs          65585.823954                       # Average number of references to valid blocks.
system.cpu.icache.tags.warmup_cycle      17895005562519                       # Cycle when the warmup percentage was hit.
system.cpu.icache.tags.occ_blocks::.cpu.inst     3.000000                       # Average occupied blocks per requestor
system.cpu.icache.tags.occ_blocks::.switch_cpus.inst   439.340876                       # Average occupied blocks per requestor
system.cpu.icache.tags.occ_percent::.cpu.inst     0.005859                       # Average percentage of cache occupancy
system.cpu.icache.tags.occ_percent::.switch_cpus.inst     0.858088                       # Average percentage of cache occupancy
system.cpu.icache.tags.occ_percent::total     0.863947                       # Average percentage of cache occupancy
system.cpu.icache.tags.occ_task_id_blocks::1024          446                       # Occupied blocks per task id
system.cpu.icache.tags.age_task_id_blocks_1024::3            5                       # Occupied blocks per task id
system.cpu.icache.tags.age_task_id_blocks_1024::4          441                       # Occupied blocks per task id
system.cpu.icache.tags.occ_task_id_percent::1024     0.871094                       # Percentage of cache occupancy per task id
system.cpu.icache.tags.tag_accesses         363609037                       # Number of tag accesses
system.cpu.icache.tags.data_accesses        363609037                       # Number of data accesses
system.cpu.icache.tags.power_state.pwrStateResidencyTicks::UNDEFINED 17928127275651                       # Cumulative time (in ticks) in various power states
system.cpu.interrupts.clk_domain.clock           5328                       # Clock period in ticks
system.cpu.itb.rdAccesses                           0                       # TLB accesses on read requests
system.cpu.itb.wrAccesses                          24                       # TLB accesses on write requests
system.cpu.itb.rdMisses                             0                       # TLB misses on read requests
system.cpu.itb.wrMisses                             0                       # TLB misses on write requests
system.cpu.itb.walker.power_state.pwrStateResidencyTicks::UNDEFINED 17928127275651                       # Cumulative time (in ticks) in various power states
system.cpu.l2bus.trans_dist::ReadResp         1391950                       # Transaction distribution
system.cpu.l2bus.trans_dist::WritebackDirty       467606                       # Transaction distribution
system.cpu.l2bus.trans_dist::WritebackClean      1253829                       # Transaction distribution
system.cpu.l2bus.trans_dist::UpgradeReq            10                       # Transaction distribution
system.cpu.l2bus.trans_dist::UpgradeResp           10                       # Transaction distribution
system.cpu.l2bus.trans_dist::ReadExReq         330454                       # Transaction distribution
system.cpu.l2bus.trans_dist::ReadExResp        330454                       # Transaction distribution
system.cpu.l2bus.trans_dist::ReadSharedReq      1391950                       # Transaction distribution
system.cpu.l2bus.pkt_count_system.cpu.icache.mem_side_port::system.cpu.l2cache.cpu_side_port         1612                       # Packet count per connected requestor and responder (bytes)
system.cpu.l2bus.pkt_count_system.cpu.dcache.mem_side_port::system.cpu.l2cache.cpu_side_port      5164641                       # Packet count per connected requestor and responder (bytes)
system.cpu.l2bus.pkt_count::total             5166253                       # Packet count per connected requestor and responder (bytes)
system.cpu.l2bus.pkt_size_system.cpu.icache.mem_side_port::system.cpu.l2cache.cpu_side_port        58816                       # Cumulative packet size per connected requestor and responder (bytes)
system.cpu.l2bus.pkt_size_system.cpu.dcache.mem_side_port::system.cpu.l2cache.cpu_side_port    220346240                       # Cumulative packet size per connected requestor and responder (bytes)
system.cpu.l2bus.pkt_size::total            220405056                       # Cumulative packet size per connected requestor and responder (bytes)
system.cpu.l2bus.snoops                            10                       # Total snoops (count)
system.cpu.l2bus.snoopTraffic                     640                       # Total snoop traffic (bytes)
system.cpu.l2bus.snoop_fanout::samples        1722414                       # Request fanout histogram
system.cpu.l2bus.snoop_fanout::mean          0.026478                       # Request fanout histogram
system.cpu.l2bus.snoop_fanout::stdev         0.160552                       # Request fanout histogram
system.cpu.l2bus.snoop_fanout::underflows            0      0.00%      0.00% # Request fanout histogram
system.cpu.l2bus.snoop_fanout::0              1676808     97.35%     97.35% # Request fanout histogram
system.cpu.l2bus.snoop_fanout::1                45606      2.65%    100.00% # Request fanout histogram
system.cpu.l2bus.snoop_fanout::2                    0      0.00%    100.00% # Request fanout histogram
system.cpu.l2bus.snoop_fanout::3                    0      0.00%    100.00% # Request fanout histogram
system.cpu.l2bus.snoop_fanout::overflows            0      0.00%    100.00% # Request fanout histogram
system.cpu.l2bus.snoop_fanout::min_value            0                       # Request fanout histogram
system.cpu.l2bus.snoop_fanout::max_value            1                       # Request fanout histogram
system.cpu.l2bus.snoop_fanout::total          1722414                       # Request fanout histogram
system.cpu.l2bus.power_state.pwrStateResidencyTicks::UNDEFINED 17928127275651                       # Cumulative time (in ticks) in various power states
system.cpu.l2bus.reqLayer0.occupancy       2293275096                       # Layer occupancy (ticks)
system.cpu.l2bus.reqLayer0.utilization            6.9                       # Layer utilization (%)
system.cpu.l2bus.respLayer0.occupancy          692298                       # Layer occupancy (ticks)
system.cpu.l2bus.respLayer0.utilization           0.0                       # Layer utilization (%)
system.cpu.l2bus.respLayer1.occupancy      1719988623                       # Layer occupancy (ticks)
system.cpu.l2bus.respLayer1.utilization           5.2                       # Layer utilization (%)
system.cpu.l2cache.demand_hits::.switch_cpus.inst          232                       # number of demand (read+write) hits
system.cpu.l2cache.demand_hits::.switch_cpus.data      1720780                       # number of demand (read+write) hits
system.cpu.l2cache.demand_hits::total         1721012                       # number of demand (read+write) hits
system.cpu.l2cache.overall_hits::.switch_cpus.inst          232                       # number of overall hits
system.cpu.l2cache.overall_hits::.switch_cpus.data      1720780                       # number of overall hits
system.cpu.l2cache.overall_hits::total        1721012                       # number of overall hits
system.cpu.l2cache.demand_misses::.cpu.inst            3                       # number of demand (read+write) misses
system.cpu.l2cache.demand_misses::.cpu.data            4                       # number of demand (read+write) misses
system.cpu.l2cache.demand_misses::.switch_cpus.inst          448                       # number of demand (read+write) misses
system.cpu.l2cache.demand_misses::.switch_cpus.data          927                       # number of demand (read+write) misses
system.cpu.l2cache.demand_misses::total          1382                       # number of demand (read+write) misses
system.cpu.l2cache.overall_misses::.cpu.inst            3                       # number of overall misses
system.cpu.l2cache.overall_misses::.cpu.data            4                       # number of overall misses
system.cpu.l2cache.overall_misses::.switch_cpus.inst          448                       # number of overall misses
system.cpu.l2cache.overall_misses::.switch_cpus.data          927                       # number of overall misses
system.cpu.l2cache.overall_misses::total         1382                       # number of overall misses
system.cpu.l2cache.demand_miss_latency::.switch_cpus.inst     34878420                       # number of demand (read+write) miss cycles
system.cpu.l2cache.demand_miss_latency::.switch_cpus.data     81257994                       # number of demand (read+write) miss cycles
system.cpu.l2cache.demand_miss_latency::total    116136414                       # number of demand (read+write) miss cycles
system.cpu.l2cache.overall_miss_latency::.switch_cpus.inst     34878420                       # number of overall miss cycles
system.cpu.l2cache.overall_miss_latency::.switch_cpus.data     81257994                       # number of overall miss cycles
system.cpu.l2cache.overall_miss_latency::total    116136414                       # number of overall miss cycles
system.cpu.l2cache.demand_accesses::.cpu.inst            3                       # number of demand (read+write) accesses
system.cpu.l2cache.demand_accesses::.cpu.data            4                       # number of demand (read+write) accesses
system.cpu.l2cache.demand_accesses::.switch_cpus.inst          680                       # number of demand (read+write) accesses
system.cpu.l2cache.demand_accesses::.switch_cpus.data      1721707                       # number of demand (read+write) accesses
system.cpu.l2cache.demand_accesses::total      1722394                       # number of demand (read+write) accesses
system.cpu.l2cache.overall_accesses::.cpu.inst            3                       # number of overall (read+write) accesses
system.cpu.l2cache.overall_accesses::.cpu.data            4                       # number of overall (read+write) accesses
system.cpu.l2cache.overall_accesses::.switch_cpus.inst          680                       # number of overall (read+write) accesses
system.cpu.l2cache.overall_accesses::.switch_cpus.data      1721707                       # number of overall (read+write) accesses
system.cpu.l2cache.overall_accesses::total      1722394                       # number of overall (read+write) accesses
system.cpu.l2cache.demand_miss_rate::.cpu.inst            1                       # miss rate for demand accesses
system.cpu.l2cache.demand_miss_rate::.cpu.data            1                       # miss rate for demand accesses
system.cpu.l2cache.demand_miss_rate::.switch_cpus.inst     0.658824                       # miss rate for demand accesses
system.cpu.l2cache.demand_miss_rate::.switch_cpus.data     0.000538                       # miss rate for demand accesses
system.cpu.l2cache.demand_miss_rate::total     0.000802                       # miss rate for demand accesses
system.cpu.l2cache.overall_miss_rate::.cpu.inst            1                       # miss rate for overall accesses
system.cpu.l2cache.overall_miss_rate::.cpu.data            1                       # miss rate for overall accesses
system.cpu.l2cache.overall_miss_rate::.switch_cpus.inst     0.658824                       # miss rate for overall accesses
system.cpu.l2cache.overall_miss_rate::.switch_cpus.data     0.000538                       # miss rate for overall accesses
system.cpu.l2cache.overall_miss_rate::total     0.000802                       # miss rate for overall accesses
system.cpu.l2cache.demand_avg_miss_latency::.switch_cpus.inst 77853.616071                       # average overall miss latency
system.cpu.l2cache.demand_avg_miss_latency::.switch_cpus.data 87656.951456                       # average overall miss latency
system.cpu.l2cache.demand_avg_miss_latency::total 84035.031838                       # average overall miss latency
system.cpu.l2cache.overall_avg_miss_latency::.switch_cpus.inst 77853.616071                       # average overall miss latency
system.cpu.l2cache.overall_avg_miss_latency::.switch_cpus.data 87656.951456                       # average overall miss latency
system.cpu.l2cache.overall_avg_miss_latency::total 84035.031838                       # average overall miss latency
system.cpu.l2cache.blocked_cycles::no_mshrs            0                       # number of cycles access was blocked
system.cpu.l2cache.blocked_cycles::no_targets            0                       # number of cycles access was blocked
system.cpu.l2cache.blocked::no_mshrs                0                       # number of cycles access was blocked
system.cpu.l2cache.blocked::no_targets              0                       # number of cycles access was blocked
system.cpu.l2cache.avg_blocked_cycles::no_mshrs          nan                       # average number of cycles each access was blocked
system.cpu.l2cache.avg_blocked_cycles::no_targets          nan                       # average number of cycles each access was blocked
system.cpu.l2cache.demand_mshr_hits::.switch_cpus.inst            7                       # number of demand (read+write) MSHR hits
system.cpu.l2cache.demand_mshr_hits::total            7                       # number of demand (read+write) MSHR hits
[...]
system.switch_cpus.commit.numCommittedDist::1      7241131      7.83%     25.10% # Number of insts commited each cycle
system.switch_cpus.commit.numCommittedDist::2      5083653      5.50%     30.60% # Number of insts commited each cycle
system.switch_cpus.commit.numCommittedDist::3     10115373     10.94%     41.54% # Number of insts commited each cycle
system.switch_cpus.commit.numCommittedDist::4      3178951      3.44%     44.98% # Number of insts commited each cycle
system.switch_cpus.commit.numCommittedDist::5      2226352      2.41%     47.39% # Number of insts commited each cycle
system.switch_cpus.commit.numCommittedDist::6      3400344      3.68%     51.06% # Number of insts commited each cycle
system.switch_cpus.commit.numCommittedDist::7      3499990      3.79%     54.85% # Number of insts commited each cycle
system.switch_cpus.commit.numCommittedDist::8     41749419     45.15%    100.00% # Number of insts commited each cycle
system.switch_cpus.commit.numCommittedDist::overflows            0      0.00%    100.00% # Number of insts commited each cycle
system.switch_cpus.commit.numCommittedDist::min_value            0                       # Number of insts commited each cycle
system.switch_cpus.commit.numCommittedDist::max_value            8                       # Number of insts commited each cycle
system.switch_cpus.commit.numCommittedDist::total     92464056                       # Number of insts commited each cycle
system.switch_cpus.commit.instsCommitted    250000001                       # Number of instructions committed
system.switch_cpus.commit.opsCommitted      450499466                       # Number of ops (including micro ops) committed
system.switch_cpus.commit.memRefs           132213732                       # Number of memory references committed
system.switch_cpus.commit.loads              91796583                       # Number of loads committed
system.switch_cpus.commit.amos                      0                       # Number of atomic instructions committed
system.switch_cpus.commit.membars                   0                       # Number of memory barriers committed
system.switch_cpus.commit.branches           44284663                       # Number of branches committed
system.switch_cpus.commit.vector                    0                       # Number of committed Vector instructions.
system.switch_cpus.commit.floating           93661082                       # Number of committed floating point instructions.
system.switch_cpus.commit.integer           395884488                       # Number of committed integer instructions.
system.switch_cpus.commit.functionCalls       6935287                       # Number of function calls committed.
system.switch_cpus.commit.committedInstType_0::No_OpClass      2418328      0.54%      0.54% # Class of committed instruction
system.switch_cpus.commit.committedInstType_0::IntAlu    268729979     59.65%     60.19% # Class of committed instruction
system.switch_cpus.commit.committedInstType_0::IntMult       953158      0.21%     60.40% # Class of committed instruction
system.switch_cpus.commit.committedInstType_0::IntDiv            0      0.00%     60.40% # Class of committed instruction
system.switch_cpus.commit.committedInstType_0::FloatAdd      1017886      0.23%     60.63% # Class of committed instruction
system.switch_cpus.commit.committedInstType_0::FloatCmp            0      0.00%     60.63% # Class of committed instruction
system.switch_cpus.commit.committedInstType_0::FloatCvt            0      0.00%     60.63% # Class of committed instruction
system.switch_cpus.commit.committedInstType_0::FloatMult            0      0.00%     60.63% # Class of committed instruction
system.switch_cpus.commit.committedInstType_0::FloatMultAcc            0      0.00%     60.63% # Class of committed instruction
system.switch_cpus.commit.committedInstType_0::FloatDiv            0      0.00%     60.63% # Class of committed instruction
system.switch_cpus.commit.committedInstType_0::FloatMisc            0      0.00%     60.63% # Class of committed instruction
system.switch_cpus.commit.committedInstType_0::FloatSqrt            0      0.00%     60.63% # Class of committed instruction
system.switch_cpus.commit.committedInstType_0::SimdAdd            0      0.00%     60.63% # Class of committed instruction
system.switch_cpus.commit.committedInstType_0::SimdAddAcc            0      0.00%     60.63% # Class of committed instruction
system.switch_cpus.commit.committedInstType_0::SimdAlu      2922550      0.65%     61.27% # Class of committed instruction
system.switch_cpus.commit.committedInstType_0::SimdCmp            0      0.00%     61.27% # Class of committed instruction
system.switch_cpus.commit.committedInstType_0::SimdCvt            0      0.00%     61.27% # Class of committed instruction
system.switch_cpus.commit.committedInstType_0::SimdMisc        80071      0.02%     61.29% # Class of committed instruction
system.switch_cpus.commit.committedInstType_0::SimdMult            0      0.00%     61.29% # Class of committed instruction
system.switch_cpus.commit.committedInstType_0::SimdMultAcc            0      0.00%     61.29% # Class of committed instruction
system.switch_cpus.commit.committedInstType_0::SimdShift            0      0.00%     61.29% # Class of committed instruction
system.switch_cpus.commit.committedInstType_0::SimdShiftAcc            0      0.00%     61.29% # Class of committed instruction
system.switch_cpus.commit.committedInstType_0::SimdDiv            0      0.00%     61.29% # Class of committed instruction
system.switch_cpus.commit.committedInstType_0::SimdSqrt            0      0.00%     61.29% # Class of committed instruction
system.switch_cpus.commit.committedInstType_0::SimdFloatAdd     17150630      3.81%     65.10% # Class of committed instruction
system.switch_cpus.commit.committedInstType_0::SimdFloatAlu            0      0.00%     65.10% # Class of committed instruction
system.switch_cpus.commit.committedInstType_0::SimdFloatCmp        61424      0.01%     65.11% # Class of committed instruction
system.switch_cpus.commit.committedInstType_0::SimdFloatCvt      7400239      1.64%     66.76% # Class of committed instruction
system.switch_cpus.commit.committedInstType_0::SimdFloatDiv       592165      0.13%     66.89% # Class of committed instruction
system.switch_cpus.commit.committedInstType_0::SimdFloatMisc            0      0.00%     66.89% # Class of committed instruction
system.switch_cpus.commit.committedInstType_0::SimdFloatMult     16927571      3.76%     70.64% # Class of committed instruction
system.switch_cpus.commit.committedInstType_0::SimdFloatMultAcc            0      0.00%     70.64% # Class of committed instruction
system.switch_cpus.commit.committedInstType_0::SimdFloatSqrt        31733      0.01%     70.65% # Class of committed instruction
system.switch_cpus.commit.committedInstType_0::SimdReduceAdd            0      0.00%     70.65% # Class of committed instruction
system.switch_cpus.commit.committedInstType_0::SimdReduceAlu            0      0.00%     70.65% # Class of committed instruction
system.switch_cpus.commit.committedInstType_0::SimdReduceCmp            0      0.00%     70.65% # Class of committed instruction
system.switch_cpus.commit.committedInstType_0::SimdFloatReduceAdd            0      0.00%     70.65% # Class of committed instruction
system.switch_cpus.commit.committedInstType_0::SimdFloatReduceCmp            0      0.00%     70.65% # Class of committed instruction
system.switch_cpus.commit.committedInstType_0::SimdAes            0      0.00%     70.65% # Class of committed instruction
system.switch_cpus.commit.committedInstType_0::SimdAesMix            0      0.00%     70.65% # Class of committed instruction
system.switch_cpus.commit.committedInstType_0::SimdSha1Hash            0      0.00%     70.65% # Class of committed instruction
system.switch_cpus.commit.committedInstType_0::SimdSha1Hash2            0      0.00%     70.65% # Class of committed instruction
system.switch_cpus.commit.committedInstType_0::SimdSha256Hash            0      0.00%     70.65% # Class of committed instruction
system.switch_cpus.commit.committedInstType_0::SimdSha256Hash2            0      0.00%     70.65% # Class of committed instruction
system.switch_cpus.commit.committedInstType_0::SimdShaSigma2            0      0.00%     70.65% # Class of committed instruction
system.switch_cpus.commit.committedInstType_0::SimdShaSigma3            0      0.00%     70.65% # Class of committed instruction
system.switch_cpus.commit.committedInstType_0::SimdPredAlu            0      0.00%     70.65% # Class of committed instruction
system.switch_cpus.commit.committedInstType_0::MemRead     56694745     12.58%     83.24% # Class of committed instruction
system.switch_cpus.commit.committedInstType_0::MemWrite     34125851      7.58%     90.81% # Class of committed instruction
system.switch_cpus.commit.committedInstType_0::FloatMemRead     35101838      7.79%     98.60% # Class of committed instruction
system.switch_cpus.commit.committedInstType_0::FloatMemWrite      6291298      1.40%    100.00% # Class of committed instruction
system.switch_cpus.commit.committedInstType_0::IprAccess            0      0.00%    100.00% # Class of committed instruction
system.switch_cpus.commit.committedInstType_0::InstPrefetch            0      0.00%    100.00% # Class of committed instruction
system.switch_cpus.commit.committedInstType_0::total    450499466                       # Class of committed instruction
system.switch_cpus.commit.commitEligibleSamples     41749419                       # number cycles where commit BW limit reached
system.switch_cpus.decode.idleCycles          5906867                       # Number of cycles decode is idle
system.switch_cpus.decode.blockedCycles      15053895                       # Number of cycles decode is blocked
system.switch_cpus.decode.runCycles          71364669                       # Number of cycles decode is running
system.switch_cpus.decode.unblockCycles       6084545                       # Number of cycles decode is unblocking
system.switch_cpus.decode.squashCycles         993230                       # Number of cycles decode is squashing
system.switch_cpus.decode.branchResolved     21313342                       # Number of times decode resolved a  branch
system.switch_cpus.decode.branchMispred         70949                       # Number of times decode detected a branch misprediction
system.switch_cpus.decode.decodedInsts      520795304                       # Number of instructions handled by decode
system.switch_cpus.decode.squashedInsts        430970                       # Number of squashed instructions handled by decode
system.switch_cpus.dtb.rdAccesses            98387617                       # TLB accesses on read requests
system.switch_cpus.dtb.wrAccesses            42655827                       # TLB accesses on write requests
system.switch_cpus.dtb.rdMisses                667830                       # TLB misses on read requests
system.switch_cpus.dtb.wrMisses                108436                       # TLB misses on write requests
system.switch_cpus.dtb.walker.power_state.pwrStateResidencyTicks::UNDEFINED 17928127275651                       # Cumulative time (in ticks) in various power states
system.switch_cpus.fetch.icacheStallCycles       969195                       # Number of cycles fetch is stalled on an Icache miss
system.switch_cpus.fetch.insts              294847211                       # Number of instructions fetch has processed
system.switch_cpus.fetch.branches            52468631                       # Number of branches that fetch encountered
system.switch_cpus.fetch.predictedBranches     32890408                       # Number of branches that fetch has predicted taken
system.switch_cpus.fetch.cycles              97370121                       # Number of cycles fetch has run and was not squashing or blocked
system.switch_cpus.fetch.squashCycles         2127328                       # Number of cycles fetch has spent squashing
system.switch_cpus.fetch.miscStallCycles           25                       # Number of cycles fetch has spent waiting on interrupts,or bad addresses, or out of MSHRs
system.switch_cpus.fetch.pendingTrapStallCycles          160                       # Number of stall cycles due to pending traps
system.switch_cpus.fetch.pendingQuiesceStallCycles           47                       # Number of stall cycles due to pending quiesce instructions
system.switch_cpus.fetch.cacheLines          45451019                       # Number of cache lines fetched
system.switch_cpus.fetch.icacheSquashes           341                       # Number of outstanding Icache misses that were squashed
system.switch_cpus.fetch.nisnDist::samples     99403212                       # Number of instructions fetched each cycle (Total)
system.switch_cpus.fetch.nisnDist::mean      5.366447                       # Number of instructions fetched each cycle (Total)
system.switch_cpus.fetch.nisnDist::stdev     2.940289                       # Number of instructions fetched each cycle (Total)
system.switch_cpus.fetch.nisnDist::underflows            0      0.00%      0.00% # Number of instructions fetched each cycle (Total)
system.switch_cpus.fetch.nisnDist::0         11492067     11.56%     11.56% # Number of instructions fetched each cycle (Total)
system.switch_cpus.fetch.nisnDist::1          4185392      4.21%     15.77% # Number of instructions fetched each cycle (Total)
system.switch_cpus.fetch.nisnDist::2          6650407      6.69%     22.46% # Number of instructions fetched each cycle (Total)
system.switch_cpus.fetch.nisnDist::3          4382991      4.41%     26.87% # Number of instructions fetched each cycle (Total)
system.switch_cpus.fetch.nisnDist::4         11994896     12.07%     38.94% # Number of instructions fetched each cycle (Total)
system.switch_cpus.fetch.nisnDist::5          3252632      3.27%     42.21% # Number of instructions fetched each cycle (Total)
system.switch_cpus.fetch.nisnDist::6          8519578      8.57%     50.78% # Number of instructions fetched each cycle (Total)
system.switch_cpus.fetch.nisnDist::7          3955353      3.98%     54.76% # Number of instructions fetched each cycle (Total)
system.switch_cpus.fetch.nisnDist::8         44969896     45.24%    100.00% # Number of instructions fetched each cycle (Total)
system.switch_cpus.fetch.nisnDist::overflows            0      0.00%    100.00% # Number of instructions fetched each cycle (Total)
system.switch_cpus.fetch.nisnDist::min_value            0                       # Number of instructions fetched each cycle (Total)
system.switch_cpus.fetch.nisnDist::max_value            8                       # Number of instructions fetched each cycle (Total)
system.switch_cpus.fetch.nisnDist::total     99403212                       # Number of instructions fetched each cycle (Total)
system.switch_cpus.fetch.branchRate          0.527511                       # Number of branch fetches per cycle
system.switch_cpus.fetch.rate                2.964344                       # Number of inst fetches per cycle
system.switch_cpus.itb.rdAccesses                   0                       # TLB accesses on read requests
system.switch_cpus.itb.wrAccesses            45451045                       # TLB accesses on write requests
system.switch_cpus.itb.rdMisses                     0                       # TLB misses on read requests
system.switch_cpus.itb.wrMisses                    87                       # TLB misses on write requests
system.switch_cpus.itb.walker.power_state.pwrStateResidencyTicks::UNDEFINED 17928127275651                       # Cumulative time (in ticks) in various power states
system.switch_cpus.lsq0.forwLoads            18299174                       # Number of loads that had data forwarded from stores
system.switch_cpus.lsq0.squashedLoads        11160836                       # Number of loads squashed
system.switch_cpus.lsq0.ignoredResponses         8665                       # Number of memory responses ignored because the instruction is squashed
system.switch_cpus.lsq0.memOrderViolation        17502                       # Number of memory ordering violations
system.switch_cpus.lsq0.squashedStores        4982047                       # Number of stores squashed
system.switch_cpus.lsq0.rescheduledLoads        60175                       # Number of loads that were rescheduled
system.switch_cpus.lsq0.blockedByCache              0                       # Number of times an access to memory failed due to the cache being blocked
system.switch_cpus.power_state.pwrStateResidencyTicks::OFF  33121713465                       # Cumulative time (in ticks) in various power states
system.switch_cpus.rename.squashCycles         993230                       # Number of cycles rename is squashing
system.switch_cpus.rename.idleCycles          8887605                       # Number of cycles rename is idle
system.switch_cpus.rename.blockCycles         6437725                       # Number of cycles rename is blocking
system.switch_cpus.rename.serializeStallCycles         1315                       # count of cycles rename stalledfor serializing inst
system.switch_cpus.rename.runCycles          74366416                       # Number of cycles rename is running
system.switch_cpus.rename.unblockCycles       8716915                       # Number of cycles rename is unblocking
system.switch_cpus.rename.renamedInsts      514583140                       # Number of instructions processed by rename
system.switch_cpus.rename.ROBFullEvents         41404                       # Number of times rename has blocked due to ROB full
system.switch_cpus.rename.IQFullEvents        2378978                       # Number of times rename has blocked due to IQ full
system.switch_cpus.rename.LQFullEvents        1800650                       # Number of times rename has blocked due to LQ full
system.switch_cpus.rename.SQFullEvents        3021335                       # Number of times rename has blocked due to SQ full
system.switch_cpus.rename.renamedOperands    520562640                       # Number of destination operands rename has renamed
system.switch_cpus.rename.lookups          1355575145                       # Number of register rename lookups that rename has made
system.switch_cpus.rename.intLookups        720004848                       # Number of integer rename lookups
system.switch_cpus.rename.fpLookups         157123456                       # Number of floating rename lookups
system.switch_cpus.rename.committedMaps     455227904                       # Number of HB maps that are committed
system.switch_cpus.rename.undoneMaps         65334639                       # Number of HB maps that are undone due to squashing
system.switch_cpus.rename.serializing               3                       # count of serializing insts renamed
system.switch_cpus.rename.tempSerializing            3                       # count of temporary serializing insts renamed
system.switch_cpus.rename.skidInsts          23187648                       # count of insts added to the skid buffer
system.switch_cpus.rob.reads                552977492                       # The number of ROB reads
system.switch_cpus.rob.writes              1011474662                       # The number of ROB writes
system.switch_cpus.thread0.numInsts         250000001                       # Number of Instructions committed
system.switch_cpus.thread0.numOps           450499466                       # Number of Ops committed
system.switch_cpus.thread0.numMemRefs               0                       # Number of Memory References
system.voltage_domain.voltage                       1                       # Voltage in Volts

---------- End Simulation Statistics   ----------
