
---------- Begin Simulation Statistics ----------
final_tick                               17928130429161                       # Number of ticks from beginning of simulation (restored from checkpoints and never reset)
host_inst_rate                                 182137                       # Simulator instruction rate (inst/s)
host_mem_usage                               16976712                       # Number of bytes of host memory used
host_op_rate                                   328210                       # Simulator op (including micro ops) rate (op/s)
host_seconds                                  1372.59                       # Real time elapsed on the host
host_tick_rate                               24133016                       # Simulator tick rate (ticks/s)
sim_freq                                 1000000000000                       # Frequency of simulated ticks
sim_insts                                   250000015                       # Number of instructions simulated
sim_ops                                     450499460                       # Number of ops (including micro ops) simulated
sim_seconds                                  0.033125                       # Number of seconds simulated
sim_ticks                                 33124848993                       # Number of ticks simulated
system.cpu.Branches                                 4                       # Number of branches fetched
system.cpu.committedInsts                          13                       # Number of instructions committed
system.cpu.committedOps                            29                       # Number of ops (including micro ops) committed
system.cpu.idle_fraction                            0                       # Percentage of idle cycles
system.cpu.l2bus.snoop_filter.hit_multi_requests        37913                       # Number of requests hitting in the snoop filter with multiple (>1) holders of the requested data.
system.cpu.l2bus.snoop_filter.hit_multi_snoops            0                       # Number of snoops hitting in the snoop filter with multiple (>1) holders of the requested data.
system.cpu.l2bus.snoop_filter.hit_single_requests      1721509                       # Number of requests hitting in the snoop filter with a single holder of the requested data.
system.cpu.l2bus.snoop_filter.hit_single_snoops            0                       # Number of snoops hitting in the snoop filter with a single holder of the requested data.
system.cpu.l2bus.snoop_filter.tot_requests      3443961                       # Total number of requests made to the snoop filter.
system.cpu.l2bus.snoop_filter.tot_snoops            0                       # Total number of snoops made to the snoop filter.
system.cpu.mmucache.mmubus.snoop_filter.hit_multi_requests            0                       # Number of requests hitting in the snoop filter with multiple (>1) holders of the requested data.
system.cpu.mmucache.mmubus.snoop_filter.hit_multi_snoops            0                       # Number of snoops hitting in the snoop filter with multiple (>1) holders of the requested data.
system.cpu.mmucache.mmubus.snoop_filter.hit_single_requests            0                       # Number of requests hitting in the snoop filter with a single holder of the requested data.
system.cpu.mmucache.mmubus.snoop_filter.hit_single_snoops            0                       # Number of snoops hitting in the snoop filter with a single holder of the requested data.
system.cpu.mmucache.mmubus.snoop_filter.tot_requests            0                       # Total number of requests made to the snoop filter.
system.cpu.mmucache.mmubus.snoop_filter.tot_snoops            0                       # Total number of snoops made to the snoop filter.
system.cpu.not_idle_fraction                        1                       # Percentage of non-idle cycles
system.cpu.numCycles                               32                       # number of cpu cycles simulated
system.cpu.numWorkItemsCompleted                    0                       # number of work items this cpu completed
system.cpu.numWorkItemsStarted                      0                       # number of work items this cpu started
system.cpu.num_busy_cycles                         32                       # Number of busy cycles
system.cpu.num_cc_register_reads                   18                       # number of times the CC registers were read
system.cpu.num_cc_register_writes                   8                       # number of times the CC registers were written
system.cpu.num_conditional_control_insts            3                       # number of instructions that are conditional controls
system.cpu.num_fp_alu_accesses                      0                       # Number of float alu accesses
system.cpu.num_fp_insts                             0                       # number of float instructions
system.cpu.num_fp_register_reads                    0                       # number of times the floating registers were read
system.cpu.num_fp_register_writes                   0                       # number of times the floating registers were written
system.cpu.num_func_calls                           1                       # number of times a function call or return occured
system.cpu.num_idle_cycles                          0                       # Number of idle cycles
system.cpu.num_int_alu_accesses                    29                       # Number of integer alu accesses
system.cpu.num_int_insts                           29                       # number of integer instructions
system.cpu.num_int_register_reads                  56                       # number of times the integer registers were read
system.cpu.num_int_register_writes                 25                       # number of times the integer registers were written
system.cpu.num_load_insts                           6                       # Number of load instructions
system.cpu.num_mem_refs                             6                       # number of memory refs
system.cpu.num_store_insts                          0                       # Number of store instructions
system.cpu.num_vec_alu_accesses                     0                       # Number of vector alu accesses
system.cpu.num_vec_insts                            0                       # number of vector instructions
system.cpu.num_vec_register_reads                   0                       # number of times the vector registers were read
system.cpu.num_vec_register_writes                  0                       # number of times the vector registers were written
system.cpu.op_class::No_OpClass                     0      0.00%      0.00% # Class of executed instruction
system.cpu.op_class::IntAlu                        23     79.31%     79.31% # Class of executed instruction
system.cpu.op_class::IntMult                        0      0.00%     79.31% # Class of executed instruction
system.cpu.op_class::IntDiv                         0      0.00%     79.31% # Class of executed instruction
system.cpu.op_class::FloatAdd                       0      0.00%     79.31% # Class of executed instruction
system.cpu.op_class::FloatCmp                       0      0.00%     79.31% # Class of executed instruction
system.cpu.op_class::FloatCvt                       0      0.00%     79.31% # Class of executed instruction
system.cpu.op_class::FloatMult                      0      0.00%     79.31% # Class of executed instruction
system.cpu.op_class::FloatMultAcc                   0      0.00%     79.31% # Class of executed instruction
system.cpu.op_class::FloatDiv                       0      0.00%     79.31% # Class of executed instruction
system.cpu.op_class::FloatMisc                      0      0.00%     79.31% # Class of executed instruction
system.cpu.op_class::FloatSqrt                      0      0.00%     79.31% # Class of executed instruction
system.cpu.op_class::SimdAdd                        0      0.00%     79.31% # Class of executed instruction
system.cpu.op_class::SimdAddAcc                     0      0.00%     79.31% # Class of executed instruction
system.cpu.op_class::SimdAlu                        0      0.00%     79.31% # Class of executed instruction
system.cpu.op_class::SimdCmp                        0      0.00%     79.31% # Class of executed instruction
system.cpu.op_class::SimdCvt                        0      0.00%     79.31% # Class of executed instruction
system.cpu.op_class::SimdMisc                       0      0.00%     79.31% # Class of executed instruction
system.cpu.op_class::SimdMult                       0      0.00%     79.31% # Class of executed instruction
system.cpu.op_class::SimdMultAcc                    0      0.00%     79.31% # Class of executed instruction
system.cpu.op_class::SimdShift                      0      0.00%     79.31% # Class of executed instruction
system.cpu.op_class::SimdShiftAcc                   0      0.00%     79.31% # Class of executed instruction
system.cpu.op_class::SimdDiv                        0      0.00%     79.31% # Class of executed instruction
system.cpu.op_class::SimdSqrt                       0      0.00%     79.31% # Class of executed instruction
system.cpu.op_class::SimdFloatAdd                   0      0.00%     79.31% # Class of executed instruction
system.cpu.op_class::SimdFloatAlu                   0      0.00%     79.31% # Class of executed instruction
system.cpu.op_class::SimdFloatCmp                   0      0.00%     79.31% # Class of executed instruction
system.cpu.op_class::SimdFloatCvt                   0      0.00%     79.31% # Class of executed instruction
system.cpu.op_class::SimdFloatDiv                   0      0.00%     79.31% # Class of executed instruction
system.cpu.op_class::SimdFloatMisc                  0      0.00%     79.31% # Class of executed instruction
system.cpu.op_class::SimdFloatMult                  0      0.00%     79.31% # Class of executed instruction
system.cpu.op_class::SimdFloatMultAcc               0      0.00%     79.31% # Class of executed instruction
system.cpu.op_class::SimdFloatSqrt                  0      0.00%     79.31% # Class of executed instruction
system.cpu.op_class::SimdReduceAdd                  0      0.00%     79.31% # Class of executed instruction
system.cpu.op_class::SimdReduceAlu                  0      0.00%     79.31% # Class of executed instruction
system.cpu.op_class::SimdReduceCmp                  0      0.00%     79.31% # Class of executed instruction
system.cpu.op_class::SimdFloatReduceAdd             0      0.00%     79.31% # Class of executed instruction
system.cpu.op_class::SimdFloatReduceCmp             0      0.00%     79.31% # Class of executed instruction
system.cpu.op_class::SimdAes                        0      0.00%     79.31% # Class of executed instruction
system.cpu.op_class::SimdAesMix                     0      0.00%     79.31% # Class of executed instruction
system.cpu.op_class::SimdSha1Hash                   0      0.00%     79.31% # Class of executed instruction
system.cpu.op_class::SimdSha1Hash2                  0      0.00%     79.31% # Class of executed instruction
system.cpu.op_class::SimdSha256Hash                 0      0.00%     79.31% # Class of executed instruction
system.cpu.op_class::SimdSha256Hash2                0      0.00%     79.31% # Class of executed instruction
system.cpu.op_class::SimdShaSigma2                  0      0.00%     79.31% # Class of executed instruction
system.cpu.op_class::SimdShaSigma3                  0      0.00%     79.31% # Class of executed instruction
system.cpu.op_class::SimdPredAlu                    0      0.00%     79.31% # Class of executed instruction
system.cpu.op_class::MemRead                        6     20.69%    100.00% # Class of executed instruction
system.cpu.op_class::MemWrite                       0      0.00%    100.00% # Class of executed instruction
system.cpu.op_class::FloatMemRead                   0      0.00%    100.00% # Class of executed instruction
system.cpu.op_class::FloatMemWrite                  0      0.00%    100.00% # Class of executed instruction
system.cpu.op_class::IprAccess                      0      0.00%    100.00% # Class of executed instruction
system.cpu.op_class::InstPrefetch                   0      0.00%    100.00% # Class of executed instruction
system.cpu.op_class::total                         29                       # Class of executed instruction
system.cpu.workload.numSyscalls                     0                       # Number of system calls
system.l3bus.snoop_filter.hit_multi_requests            0                       # Number of requests hitting in the snoop filter with multiple (>1) holders of the requested data.
system.l3bus.snoop_filter.hit_multi_snoops            0                       # Number of snoops hitting in the snoop filter with multiple (>1) holders of the requested data.
system.l3bus.snoop_filter.hit_single_requests            0                       # Number of requests hitting in the snoop filter with a single holder of the requested data.
system.l3bus.snoop_filter.hit_single_snoops            0                       # Number of snoops hitting in the snoop filter with a single holder of the requested data.
system.l3bus.snoop_filter.tot_requests           1375                       # Total number of requests made to the snoop filter.
system.l3bus.snoop_filter.tot_snoops                0                       # Total number of snoops made to the snoop filter.
system.membus.snoop_filter.hit_multi_requests            0                       # Number of requests hitting in the snoop filter with multiple (>1) holders of the requested data.
system.membus.snoop_filter.hit_multi_snoops            0                       # Number of snoops hitting in the snoop filter with multiple (>1) holders of the requested data.
system.membus.snoop_filter.hit_single_requests            0                       # Number of requests hitting in the snoop filter with a single holder of the requested data.
system.membus.snoop_filter.hit_single_snoops            0                       # Number of snoops hitting in the snoop filter with a single holder of the requested data.
system.membus.snoop_filter.tot_requests          1375                       # Total number of requests made to the snoop filter.
system.membus.snoop_filter.tot_snoops               0                       # Total number of snoops made to the snoop filter.
system.switch_cpus.cc_regfile_reads         204542871                       # number of cc regfile reads
system.switch_cpus.cc_regfile_writes        100510626                       # number of cc regfile writes
system.switch_cpus.committedInsts           250000002                       # Number of Instructions Simulated
system.switch_cpus.committedOps             450499431                       # Number of Ops (including micro ops) Simulated
system.switch_cpus.cpi                       0.397896                       # CPI: Cycles Per Instruction
system.switch_cpus.cpi_total                 0.397896                       # CPI: Total CPI of All Threads
system.switch_cpus.fp_regfile_reads         146665140                       # number of floating regfile reads
system.switch_cpus.fp_regfile_writes         84014591                       # number of floating regfile writes
system.switch_cpus.idleCycles                   61906                       # Total number of cycles that the CPU has spent unscheduled due to idling
system.switch_cpus.iew.branchMispredicts      1092753                       # Number of branch mispredicts detected at execute
system.switch_cpus.iew.exec_branches         46302792                       # Number of branches executed
system.switch_cpus.iew.exec_nop                     0                       # number of nop insts executed
system.switch_cpus.iew.exec_rate             4.822633                       # Inst execution rate
system.switch_cpus.iew.exec_refs            140839566                       # number of memory reference insts executed
system.switch_cpus.iew.exec_stores           42655703                       # Number of stores executed
system.switch_cpus.iew.exec_swp                     0                       # number of swp insts executed
system.switch_cpus.iew.iewBlockCycles         6038822                       # Number of cycles IEW is blocking
system.switch_cpus.iew.iewDispLoadInsts     102957379                       # Number of dispatched load instructions
system.switch_cpus.iew.iewDispNonSpecInsts            8                       # Number of dispatched non-speculative instructions
system.switch_cpus.iew.iewDispSquashedInsts          257                       # Number of squashed instructions skipped by dispatch
system.switch_cpus.iew.iewDispStoreInsts     45398867                       # Number of dispatched store instructions
system.switch_cpus.iew.iewDispatchedInsts    502265208                       # Number of instructions dispatched to IQ
system.switch_cpus.iew.iewExecLoadInsts      98183863                       # Number of load instructions executed
system.switch_cpus.iew.iewExecSquashedInsts      3026321                       # Number of squashed instructions skipped in execute
system.switch_cpus.iew.iewExecutedInsts     479726542                       # Number of executed instructions
system.switch_cpus.iew.iewIQFullEvents          10013                       # Number of times the IQ has become full, causing a stall
system.switch_cpus.iew.iewIdleCycles                0                       # Number of cycles IEW is idle
system.switch_cpus.iew.iewLSQFullEvents        182151                       # Number of times the LSQ has become full, causing a stall
system.switch_cpus.iew.iewSquashCycles         993413                       # Number of cycles IEW is squashing
system.switch_cpus.iew.iewUnblockCycles        195858                       # Number of cycles IEW is unblocking
system.switch_cpus.iew.memOrderViolationEvents        17504                       # Number of memory order violations
system.switch_cpus.iew.predictedNotTakenIncorrect       731756                       # Number of branches that were predicted not taken incorrectly
system.switch_cpus.iew.predictedTakenIncorrect       360997                       # Number of branches that were predicted taken incorrectly
system.switch_cpus.iew.wb_consumers         628039006                       # num instructions consuming a value
system.switch_cpus.iew.wb_count             477950462                       # cumulative count of insts written-back
system.switch_cpus.iew.wb_fanout             0.567157                       # average fanout of values written-back
system.switch_cpus.iew.wb_producers         356196969                       # num instructions producing a value
system.switch_cpus.iew.wb_rate               4.804778                       # insts written-back per cycle
system.switch_cpus.iew.wb_sent              479221705                       # cumulative count of insts sent to commit
system.switch_cpus.int_regfile_reads        664490041                       # number of integer regfile reads
system.switch_cpus.int_regfile_writes       299472074                       # number of integer regfile writes
system.switch_cpus.ipc                       2.513220                       # IPC: Instructions Per Cycle
system.switch_cpus.ipc_total                 2.513220                       # IPC: Total IPC of All Threads
system.switch_cpus.iq.FU_type_0::No_OpClass      2621951      0.54%      0.54% # Type of FU issued
system.switch_cpus.iq.FU_type_0::IntAlu     289481135     59.96%     60.51% # Type of FU issued
system.switch_cpus.iq.FU_type_0::IntMult       962264      0.20%     60.71% # Type of FU issued
system.switch_cpus.iq.FU_type_0::IntDiv             0      0.00%     60.71% # Type of FU issued
system.switch_cpus.iq.FU_type_0::FloatAdd      1082737      0.22%     60.93% # Type of FU issued
system.switch_cpus.iq.FU_type_0::FloatCmp            0      0.00%     60.93% # Type of FU issued
system.switch_cpus.iq.FU_type_0::FloatCvt            0      0.00%     60.93% # Type of FU issued
system.switch_cpus.iq.FU_type_0::FloatMult            0      0.00%     60.93% # Type of FU issued
system.switch_cpus.iq.FU_type_0::FloatMultAcc            0      0.00%     60.93% # Type of FU issued
system.switch_cpus.iq.FU_type_0::FloatDiv            0      0.00%     60.93% # Type of FU issued
system.switch_cpus.iq.FU_type_0::FloatMisc            0      0.00%     60.93% # Type of FU issued
system.switch_cpus.iq.FU_type_0::FloatSqrt            0      0.00%     60.93% # Type of FU issued
system.switch_cpus.iq.FU_type_0::SimdAdd            0      0.00%     60.93% # Type of FU issued
system.switch_cpus.iq.FU_type_0::SimdAddAcc            0      0.00%     60.93% # Type of FU issued
system.switch_cpus.iq.FU_type_0::SimdAlu      2983138      0.62%     61.55% # Type of FU issued
system.switch_cpus.iq.FU_type_0::SimdCmp            0      0.00%     61.55% # Type of FU issued
system.switch_cpus.iq.FU_type_0::SimdCvt            0      0.00%     61.55% # Type of FU issued
system.switch_cpus.iq.FU_type_0::SimdMisc        80077      0.02%     61.57% # Type of FU issued
system.switch_cpus.iq.FU_type_0::SimdMult            0      0.00%     61.57% # Type of FU issued
system.switch_cpus.iq.FU_type_0::SimdMultAcc            0      0.00%     61.57% # Type of FU issued
system.switch_cpus.iq.FU_type_0::SimdShift            0      0.00%     61.57% # Type of FU issued
system.switch_cpus.iq.FU_type_0::SimdShiftAcc            0      0.00%     61.57% # Type of FU issued
system.switch_cpus.iq.FU_type_0::SimdDiv            0      0.00%     61.57% # Type of FU issued
system.switch_cpus.iq.FU_type_0::SimdSqrt            0      0.00%     61.57% # Type of FU issued
system.switch_cpus.iq.FU_type_0::SimdFloatAdd     17493531      3.62%     65.19% # Type of FU issued
system.switch_cpus.iq.FU_type_0::SimdFloatAlu            0      0.00%     65.19% # Type of FU issued
system.switch_cpus.iq.FU_type_0::SimdFloatCmp        61424      0.01%     65.20% # Type of FU issued
system.switch_cpus.iq.FU_type_0::SimdFloatCvt      7580335      1.57%     66.77% # Type of FU issued
system.switch_cpus.iq.FU_type_0::SimdFloatDiv       605498      0.13%     66.90% # Type of FU issued
system.switch_cpus.iq.FU_type_0::SimdFloatMisc            0      0.00%     66.90% # Type of FU issued
system.switch_cpus.iq.FU_type_0::SimdFloatMult     17349786      3.59%     70.49% # Type of FU issued
system.switch_cpus.iq.FU_type_0::SimdFloatMultAcc            0      0.00%     70.49% # Type of FU issued
system.switch_cpus.iq.FU_type_0::SimdFloatSqrt        38395      0.01%     70.50% # Type of FU issued
system.switch_cpus.iq.FU_type_0::SimdReduceAdd            0      0.00%     70.50% # Type of FU issued
system.switch_cpus.iq.FU_type_0::SimdReduceAlu            0      0.00%     70.50% # Type of FU issued
system.switch_cpus.iq.FU_type_0::SimdReduceCmp            0      0.00%     70.50% # Type of FU issued
system.switch_cpus.iq.FU_type_0::SimdFloatReduceAdd            0      0.00%     70.50% # Type of FU issued
system.switch_cpus.iq.FU_type_0::SimdFloatReduceCmp            0      0.00%     70.50% # Type of FU issued
system.switch_cpus.iq.FU_type_0::SimdAes            0      0.00%     70.50% # Type of FU issued
system.switch_cpus.iq.FU_type_0::SimdAesMix            0      0.00%     70.50% # Type of FU issued
system.switch_cpus.iq.FU_type_0::SimdSha1Hash            0      0.00%     70.50% # Type of FU issued
system.switch_cpus.iq.FU_type_0::SimdSha1Hash2            0      0.00%     70.50% # Type of FU issued
system.switch_cpus.iq.FU_type_0::SimdSha256Hash            0      0.00%     70.50% # Type of FU issued
system.switch_cpus.iq.FU_type_0::SimdSha256Hash2            0      0.00%     70.50% # Type of FU issued
system.switch_cpus.iq.FU_type_0::SimdShaSigma2            0      0.00%     70.50% # Type of FU issued
system.switch_cpus.iq.FU_type_0::SimdShaSigma3            0      0.00%     70.50% # Type of FU issued
system.switch_cpus.iq.FU_type_0::SimdPredAlu            0      0.00%     70.50% # Type of FU issued
system.switch_cpus.iq.FU_type_0::MemRead     61663436     12.77%     83.27% # Type of FU issued
system.switch_cpus.iq.FU_type_0::MemWrite     36576166      7.58%     90.85% # Type of FU issued
system.switch_cpus.iq.FU_type_0::FloatMemRead     37783712      7.83%     98.68% # Type of FU issued
system.switch_cpus.iq.FU_type_0::FloatMemWrite      6389286      1.32%    100.00% # Type of FU issued
system.switch_cpus.iq.FU_type_0::IprAccess            0      0.00%    100.00% # Type of FU issued
system.switch_cpus.iq.FU_type_0::InstPrefetch            0      0.00%    100.00% # Type of FU issued
system.switch_cpus.iq.FU_type_0::total      482752871                       # Type of FU issued
system.switch_cpus.iq.fp_alu_accesses       102888407                       # Number of floating point alu accesses
system.switch_cpus.iq.fp_inst_queue_reads    200767059                       # Number of floating instruction queue reads
system.switch_cpus.iq.fp_inst_queue_wakeup_accesses     96434353                       # Number of floating instruction queue wakeup accesses
system.switch_cpus.iq.fp_inst_queue_writes    108423086                       # Number of floating instruction queue writes
system.switch_cpus.iq.fu_busy_cnt            13669400                       # FU busy when requested
system.switch_cpus.iq.fu_busy_rate           0.028316                       # FU busy rate (busy events/executed inst)
system.switch_cpus.iq.fu_full::No_OpClass            0      0.00%      0.00% # attempts to use FU when none available
system.switch_cpus.iq.fu_full::IntAlu         4040892     29.56%     29.56% # attempts to use FU when none available
system.switch_cpus.iq.fu_full::IntMult              0      0.00%     29.56% # attempts to use FU when none available
system.switch_cpus.iq.fu_full::IntDiv               0      0.00%     29.56% # attempts to use FU when none available
system.switch_cpus.iq.fu_full::FloatAdd          9890      0.07%     29.63% # attempts to use FU when none available
system.switch_cpus.iq.fu_full::FloatCmp             0      0.00%     29.63% # attempts to use FU when none available
system.switch_cpus.iq.fu_full::FloatCvt             0      0.00%     29.63% # attempts to use FU when none available
system.switch_cpus.iq.fu_full::FloatMult            0      0.00%     29.63% # attempts to use FU when none available
system.switch_cpus.iq.fu_full::FloatMultAcc            0      0.00%     29.63% # attempts to use FU when none available
system.switch_cpus.iq.fu_full::FloatDiv             0      0.00%     29.63% # attempts to use FU when none available
system.switch_cpus.iq.fu_full::FloatMisc            0      0.00%     29.63% # attempts to use FU when none available
system.switch_cpus.iq.fu_full::FloatSqrt            0      0.00%     29.63% # attempts to use FU when none available
system.switch_cpus.iq.fu_full::SimdAdd              0      0.00%     29.63% # attempts to use FU when none available
system.switch_cpus.iq.fu_full::SimdAddAcc            0      0.00%     29.63% # attempts to use FU when none available
system.switch_cpus.iq.fu_full::SimdAlu         217309      1.59%     31.22% # attempts to use FU when none available
system.switch_cpus.iq.fu_full::SimdCmp              0      0.00%     31.22% # attempts to use FU when none available
system.switch_cpus.iq.fu_full::SimdCvt              0      0.00%     31.22% # attempts to use FU when none available
system.switch_cpus.iq.fu_full::SimdMisc             2      0.00%     31.22% # attempts to use FU when none available
system.switch_cpus.iq.fu_full::SimdMult             0      0.00%     31.22% # attempts to use FU when none available
system.switch_cpus.iq.fu_full::SimdMultAcc            0      0.00%     31.22% # attempts to use FU when none available
system.switch_cpus.iq.fu_full::SimdShift            0      0.00%     31.22% # attempts to use FU when none available
system.switch_cpus.iq.fu_full::SimdShiftAcc            0      0.00%     31.22% # attempts to use FU when none available
system.switch_cpus.iq.fu_full::SimdDiv              0      0.00%     31.22% # attempts to use FU when none available
system.switch_cpus.iq.fu_full::SimdSqrt             0      0.00%     31.22% # attempts to use FU when none available
system.switch_cpus.iq.fu_full::SimdFloatAdd       506567      3.71%     34.93% # attempts to use FU when none available
system.switch_cpus.iq.fu_full::SimdFloatAlu            0      0.00%     34.93% # attempts to use FU when none available
system.switch_cpus.iq.fu_full::SimdFloatCmp            0      0.00%     34.93% # attempts to use FU when none available
system.switch_cpus.iq.fu_full::SimdFloatCvt        54507      0.40%     35.33% # attempts to use FU when none available
system.switch_cpus.iq.fu_full::SimdFloatDiv            0      0.00%     35.33% # attempts to use FU when none available
system.switch_cpus.iq.fu_full::SimdFloatMisc            0      0.00%     35.33% # attempts to use FU when none available
system.switch_cpus.iq.fu_full::SimdFloatMult       340524      2.49%     37.82% # attempts to use FU when none available
system.switch_cpus.iq.fu_full::SimdFloatMultAcc            0      0.00%     37.82% # attempts to use FU when none available
system.switch_cpus.iq.fu_full::SimdFloatSqrt            0      0.00%     37.82% # attempts to use FU when none available
system.switch_cpus.iq.fu_full::SimdReduceAdd            0      0.00%     37.82% # attempts to use FU when none available
system.switch_cpus.iq.fu_full::SimdReduceAlu            0      0.00%     37.82% # attempts to use FU when none available
system.switch_cpus.iq.fu_full::SimdReduceCmp            0      0.00%     37.82% # attempts to use FU when none available
system.switch_cpus.iq.fu_full::SimdFloatReduceAdd            0      0.00%     37.82% # attempts to use FU when none available
system.switch_cpus.iq.fu_full::SimdFloatReduceCmp            0      0.00%     37.82% # attempts to use FU when none available
system.switch_cpus.iq.fu_full::SimdAes              0      0.00%     37.82% # attempts to use FU when none available
system.switch_cpus.iq.fu_full::SimdAesMix            0      0.00%     37.82% # attempts to use FU when none available
system.switch_cpus.iq.fu_full::SimdSha1Hash            0      0.00%     37.82% # attempts to use FU when none available
system.switch_cpus.iq.fu_full::SimdSha1Hash2            0      0.00%     37.82% # attempts to use FU when none available
system.switch_cpus.iq.fu_full::SimdSha256Hash            0      0.00%     37.82% # attempts to use FU when none available
system.switch_cpus.iq.fu_full::SimdSha256Hash2            0      0.00%     37.82% # attempts to use FU when none available
system.switch_cpus.iq.fu_full::SimdShaSigma2            0      0.00%     37.82% # attempts to use FU when none available
system.switch_cpus.iq.fu_full::SimdShaSigma3            0      0.00%     37.82% # attempts to use FU when none available
system.switch_cpus.iq.fu_full::SimdPredAlu            0      0.00%     37.82% # attempts to use FU when none available
system.switch_cpus.iq.fu_full::MemRead        3270707     23.93%     61.75% # attempts to use FU when none available
system.switch_cpus.iq.fu_full::MemWrite       1154474      8.45%     70.19% # attempts to use FU when none available
system.switch_cpus.iq.fu_full::FloatMemRead      3543058     25.92%     96.11% # attempts to use FU when none available
system.switch_cpus.iq.fu_full::FloatMemWrite       531470      3.89%    100.00% # attempts to use FU when none available
system.switch_cpus.iq.fu_full::IprAccess            0      0.00%    100.00% # attempts to use FU when none available
system.switch_cpus.iq.fu_full::InstPrefetch            0      0.00%    100.00% # attempts to use FU when none available
system.switch_cpus.iq.int_alu_accesses      390911913                       # Number of integer alu accesses
system.switch_cpus.iq.int_inst_queue_reads    878527657                       # Number of integer instruction queue reads
system.switch_cpus.iq.int_inst_queue_wakeup_accesses    381516109                       # Number of integer instruction queue wakeup accesses
system.switch_cpus.iq.int_inst_queue_writes    445625137                       # Number of integer instruction queue writes
system.switch_cpus.iq.iqInstsAdded          502265196                       # Number of instructions added to the IQ (excludes non-spec)
system.switch_cpus.iq.iqInstsIssued         482752871                       # Number of instructions issued
system.switch_cpus.iq.iqNonSpecInstsAdded           12                       # Number of non-speculative instructions added to the IQ
system.switch_cpus.iq.iqSquashedInstsExamined     51765701                       # Number of squashed instructions iterated over during squash; mainly for profiling
system.switch_cpus.iq.iqSquashedInstsIssued       707499                       # Number of squashed instructions issued
system.switch_cpus.iq.iqSquashedNonSpecRemoved           12                       # Number of squashed non-spec instructions that were removed
system.switch_cpus.iq.iqSquashedOperandsExamined     75008719                       # Number of squashed operands that are examined and possibly removed from graph
system.switch_cpus.iq.issued_per_cycle::samples     99412083                       # Number of insts issued each cycle
system.switch_cpus.iq.issued_per_cycle::mean     4.856078                       # Number of insts issued each cycle
system.switch_cpus.iq.issued_per_cycle::stdev     2.689171                       # Number of insts issued each cycle
system.switch_cpus.iq.issued_per_cycle::underflows            0      0.00%      0.00% # Number of insts issued each cycle
system.switch_cpus.iq.issued_per_cycle::0     13740161     13.82%     13.82% # Number of insts issued each cycle
system.switch_cpus.iq.issued_per_cycle::1      2725625      2.74%     16.56% # Number of insts issued each cycle
system.switch_cpus.iq.issued_per_cycle::2      5131889      5.16%     21.73% # Number of insts issued each cycle
system.switch_cpus.iq.issued_per_cycle::3      6699677      6.74%     28.46% # Number of insts issued each cycle
system.switch_cpus.iq.issued_per_cycle::4      9452254      9.51%     37.97% # Number of insts issued each cycle
system.switch_cpus.iq.issued_per_cycle::5     12217827     12.29%     50.26% # Number of insts issued each cycle
system.switch_cpus.iq.issued_per_cycle::6     15186144     15.28%     65.54% # Number of insts issued each cycle
system.switch_cpus.iq.issued_per_cycle::7     14418626     14.50%     80.04% # Number of insts issued each cycle
system.switch_cpus.iq.issued_per_cycle::8     19839880     19.96%    100.00% # Number of insts issued each cycle
system.switch_cpus.iq.issued_per_cycle::overflows            0      0.00%    100.00% # Number of insts issued each cycle
system.switch_cpus.iq.issued_per_cycle::min_value            0                       # Number of insts issued each cycle
system.switch_cpus.iq.issued_per_cycle::max_value            8                       # Number of insts issued each cycle
system.switch_cpus.iq.issued_per_cycle::total     99412083                       # Number of insts issued each cycle
system.switch_cpus.iq.rate                   4.853056                       # Inst issue rate
system.switch_cpus.iq.vec_alu_accesses              0                       # Number of vector alu accesses
system.switch_cpus.iq.vec_inst_queue_reads            0                       # Number of vector instruction queue reads
system.switch_cpus.iq.vec_inst_queue_wakeup_accesses            0                       # Number of vector instruction queue wakeup accesses
system.switch_cpus.iq.vec_inst_queue_writes            0                       # Number of vector instruction queue writes
system.switch_cpus.memDep0.conflictingLoads      5204004                       # Number of conflicting loads.
system.switch_cpus.memDep0.conflictingStores      2561855                       # Number of conflicting stores.
system.switch_cpus.memDep0.insertedLoads    102957379                       # Number of loads inserted to the mem dependence unit.
system.switch_cpus.memDep0.insertedStores     45398867                       # Number of stores inserted to the mem dependence unit.
system.switch_cpus.misc_regfile_reads       236410962                       # number of misc regfile reads
system.switch_cpus.misc_regfile_writes              1                       # number of misc regfile writes
system.switch_cpus.numCycles                 99473989                       # number of cpu cycles simulated
system.switch_cpus.numWorkItemsCompleted            0                       # number of work items this cpu completed
system.switch_cpus.numWorkItemsStarted              0                       # number of work items this cpu started
system.switch_cpus.timesIdled                     346                       # Number of times that the entire CPU went into an idle state and unscheduled itself
system.clk_domain.clock                           333                       # Clock period in ticks
system.cpu.dcache.demand_hits::.cpu.data            3                       # number of demand (read+write) hits
system.cpu.dcache.demand_hits::.switch_cpus.data    116794454                       # number of demand (read+write) hits
system.cpu.dcache.demand_hits::total        116794457                       # number of demand (read+write) hits
system.cpu.dcache.overall_hits::.cpu.data            3                       # number of overall hits
system.cpu.dcache.overall_hits::.switch_cpus.data    116795570                       # number of overall hits
system.cpu.dcache.overall_hits::total       116795573                       # number of overall hits
system.cpu.dcache.demand_misses::.cpu.data            3                       # number of demand (read+write) misses
system.cpu.dcache.demand_misses::.switch_cpus.data      3406275                       # number of demand (read+write) misses
system.cpu.dcache.demand_misses::total        3406278                       # number of demand (read+write) misses
system.cpu.dcache.overall_misses::.cpu.data            3                       # number of overall misses
system.cpu.dcache.overall_misses::.switch_cpus.data      3429310                       # number of overall misses
system.cpu.dcache.overall_misses::total       3429313                       # number of overall misses
system.cpu.dcache.demand_miss_latency::.switch_cpus.data  16270228152                       # number of demand (read+write) miss cycles
system.cpu.dcache.demand_miss_latency::total  16270228152                       # number of demand (read+write) miss cycles
system.cpu.dcache.overall_miss_latency::.switch_cpus.data  16270228152                       # number of overall miss cycles
system.cpu.dcache.overall_miss_latency::total  16270228152                       # number of overall miss cycles
system.cpu.dcache.demand_accesses::.cpu.data            6                       # number of demand (read+write) accesses
system.cpu.dcache.demand_accesses::.switch_cpus.data    120200729                       # number of demand (read+write) accesses
system.cpu.dcache.demand_accesses::total    120200735                       # number of demand (read+write) accesses
system.cpu.dcache.overall_accesses::.cpu.data            6                       # number of overall (read+write) accesses
system.cpu.dcache.overall_accesses::.switch_cpus.data    120224880                       # number of overall (read+write) accesses
system.cpu.dcache.overall_accesses::total    120224886                       # number of overall (read+write) accesses
system.cpu.dcache.demand_miss_rate::.cpu.data     0.500000                       # miss rate for demand accesses
system.cpu.dcache.demand_miss_rate::.switch_cpus.data     0.028338                       # miss rate for demand accesses
system.cpu.dcache.demand_miss_rate::total     0.028338                       # miss rate for demand accesses
system.cpu.dcache.overall_miss_rate::.cpu.data     0.500000                       # miss rate for overall accesses
system.cpu.dcache.overall_miss_rate::.switch_cpus.data     0.028524                       # miss rate for overall accesses
system.cpu.dcache.overall_miss_rate::total     0.028524                       # miss rate for overall accesses
system.cpu.dcache.demand_avg_miss_latency::.switch_cpus.data  4776.545685                       # average overall miss latency
system.cpu.dcache.demand_avg_miss_latency::total  4776.541478                       # average overall miss latency
system.cpu.dcache.overall_avg_miss_latency::.switch_cpus.data  4744.461175                       # average overall miss latency
system.cpu.dcache.overall_avg_miss_latency::total  4744.457024                       # average overall miss latency
system.cpu.dcache.blocked_cycles::no_mshrs            0                       # number of cycles access was blocked
system.cpu.dcache.blocked_cycles::no_targets            0                       # number of cycles access was blocked
system.cpu.dcache.blocked::no_mshrs                 0                       # number of cycles access was blocked
system.cpu.dcache.blocked::no_targets               0                       # number of cycles access was blocked
system.cpu.dcache.avg_blocked_cycles::no_mshrs          nan                       # average number of cycles each access was blocked
system.cpu.dcache.avg_blocked_cycles::no_targets          nan                       # average number of cycles each access was blocked
system.cpu.dcache.writebacks::.writebacks      1721243                       # number of writebacks
system.cpu.dcache.writebacks::total           1721243                       # number of writebacks
system.cpu.dcache.demand_mshr_hits::.switch_cpus.data      1692194                       # number of demand (read+write) MSHR hits
system.cpu.dcache.demand_mshr_hits::total      1692194                       # number of demand (read+write) MSHR hits
system.cpu.dcache.overall_mshr_hits::.switch_cpus.data      1692194                       # number of overall MSHR hits
system.cpu.dcache.overall_mshr_hits::total      1692194                       # number of overall MSHR hits
system.cpu.dcache.demand_mshr_misses::.switch_cpus.data      1714081                       # number of demand (read+write) MSHR misses
system.cpu.dcache.demand_mshr_misses::total      1714081                       # number of demand (read+write) MSHR misses
system.cpu.dcache.overall_mshr_misses::.switch_cpus.data      1721760                       # number of overall MSHR misses
system.cpu.dcache.overall_mshr_misses::total      1721760                       # number of overall MSHR misses
system.cpu.dcache.demand_mshr_miss_latency::.switch_cpus.data   7813104741                       # number of demand (read+write) MSHR miss cycles
system.cpu.dcache.demand_mshr_miss_latency::total   7813104741                       # number of demand (read+write) MSHR miss cycles
system.cpu.dcache.overall_mshr_miss_latency::.switch_cpus.data   7846515963                       # number of overall MSHR miss cycles
system.cpu.dcache.overall_mshr_miss_latency::total   7846515963                       # number of overall MSHR miss cycles
system.cpu.dcache.demand_mshr_miss_rate::.switch_cpus.data     0.014260                       # mshr miss rate for demand accesses
system.cpu.dcache.demand_mshr_miss_rate::total     0.014260                       # mshr miss rate for demand accesses
system.cpu.dcache.overall_mshr_miss_rate::.switch_cpus.data     0.014321                       # mshr miss rate for overall accesses
system.cpu.dcache.overall_mshr_miss_rate::total     0.014321                       # mshr miss rate for overall accesses
system.cpu.dcache.demand_avg_mshr_miss_latency::.switch_cpus.data  4558.188756                       # average overall mshr miss latency
system.cpu.dcache.demand_avg_mshr_miss_latency::total  4558.188756                       # average overall mshr miss latency
system.cpu.dcache.overall_avg_mshr_miss_latency::.switch_cpus.data  4557.264638                       # average overall mshr miss latency
system.cpu.dcache.overall_avg_mshr_miss_latency::total  4557.264638                       # average overall mshr miss latency
system.cpu.dcache.replacements                1721243                       # number of replacements
system.cpu.dcache.ReadReq_hits::.cpu.data            3                       # number of ReadReq hits
system.cpu.dcache.ReadReq_hits::.switch_cpus.data     76714576                       # number of ReadReq hits
system.cpu.dcache.ReadReq_hits::total        76714579                       # number of ReadReq hits
system.cpu.dcache.ReadReq_misses::.cpu.data            3                       # number of ReadReq misses
system.cpu.dcache.ReadReq_misses::.switch_cpus.data      3069024                       # number of ReadReq misses
system.cpu.dcache.ReadReq_misses::total       3069027                       # number of ReadReq misses
system.cpu.dcache.ReadReq_miss_latency::.switch_cpus.data  14617347021                       # number of ReadReq miss cycles
system.cpu.dcache.ReadReq_miss_latency::total  14617347021                       # number of ReadReq miss cycles
system.cpu.dcache.ReadReq_accesses::.cpu.data            6                       # number of ReadReq accesses(hits+misses)
system.cpu.dcache.ReadReq_accesses::.switch_cpus.data     79783600                       # number of ReadReq accesses(hits+misses)
system.cpu.dcache.ReadReq_accesses::total     79783606                       # number of ReadReq accesses(hits+misses)
system.cpu.dcache.ReadReq_miss_rate::.cpu.data     0.500000                       # miss rate for ReadReq accesses
system.cpu.dcache.ReadReq_miss_rate::.switch_cpus.data     0.038467                       # miss rate for ReadReq accesses
system.cpu.dcache.ReadReq_miss_rate::total     0.038467                       # miss rate for ReadReq accesses
system.cpu.dcache.ReadReq_avg_miss_latency::.switch_cpus.data  4762.865009                       # average ReadReq miss latency
system.cpu.dcache.ReadReq_avg_miss_latency::total  4762.860353                       # average ReadReq miss latency
system.cpu.dcache.ReadReq_mshr_hits::.switch_cpus.data      1685401                       # number of ReadReq MSHR hits
system.cpu.dcache.ReadReq_mshr_hits::total      1685401                       # number of ReadReq MSHR hits
system.cpu.dcache.ReadReq_mshr_misses::.switch_cpus.data      1383623                       # number of ReadReq MSHR misses
system.cpu.dcache.ReadReq_mshr_misses::total      1383623                       # number of ReadReq MSHR misses
system.cpu.dcache.ReadReq_mshr_miss_latency::.switch_cpus.data   6290036334                       # number of ReadReq MSHR miss cycles
system.cpu.dcache.ReadReq_mshr_miss_latency::total   6290036334                       # number of ReadReq MSHR miss cycles
system.cpu.dcache.ReadReq_mshr_miss_rate::.switch_cpus.data     0.017342                       # mshr miss rate for ReadReq accesses
system.cpu.dcache.ReadReq_mshr_miss_rate::total     0.017342                       # mshr miss rate for ReadReq accesses
system.cpu.dcache.ReadReq_avg_mshr_miss_latency::.switch_cpus.data  4546.062283                       # average ReadReq mshr miss latency
system.cpu.dcache.ReadReq_avg_mshr_miss_latency::total  4546.062283                       # average ReadReq mshr miss latency
system.cpu.dcache.WriteReq_hits::.switch_cpus.data     40079878                       # number of WriteReq hits
system.cpu.dcache.WriteReq_hits::total       40079878                       # number of WriteReq hits
system.cpu.dcache.WriteReq_misses::.switch_cpus.data       337251                       # number of WriteReq misses
system.cpu.dcache.WriteReq_misses::total       337251                       # number of WriteReq misses
system.cpu.dcache.WriteReq_miss_latency::.switch_cpus.data   1652881131                       # number of WriteReq miss cycles
system.cpu.dcache.WriteReq_miss_latency::total   1652881131                       # number of WriteReq miss cycles
system.cpu.dcache.WriteReq_accesses::.switch_cpus.data     40417129                       # number of WriteReq accesses(hits+misses)
system.cpu.dcache.WriteReq_accesses::total     40417129                       # number of WriteReq accesses(hits+misses)
system.cpu.dcache.WriteReq_miss_rate::.switch_cpus.data     0.008344                       # miss rate for WriteReq accesses
system.cpu.dcache.WriteReq_miss_rate::total     0.008344                       # miss rate for WriteReq accesses
system.cpu.dcache.WriteReq_avg_miss_latency::.switch_cpus.data  4901.041453                       # average WriteReq miss latency
system.cpu.dcache.WriteReq_avg_miss_latency::total  4901.041453                       # average WriteReq miss latency
system.cpu.dcache.WriteReq_mshr_hits::.switch_cpus.data         6793                       # number of WriteReq MSHR hits
system.cpu.dcache.WriteReq_mshr_hits::total         6793                       # number of WriteReq MSHR hits
system.cpu.dcache.WriteReq_mshr_misses::.switch_cpus.data       330458                       # number of WriteReq MSHR misses
system.cpu.dcache.WriteReq_mshr_misses::total       330458                       # number of WriteReq MSHR misses
system.cpu.dcache.WriteReq_mshr_miss_latency::.switch_cpus.data   1523068407                       # number of WriteReq MSHR miss cycles
system.cpu.dcache.WriteReq_mshr_miss_latency::total   1523068407                       # number of WriteReq MSHR miss cycles
system.cpu.dcache.WriteReq_mshr_miss_rate::.switch_cpus.data     0.008176                       # mshr miss rate for WriteReq accesses
system.cpu.dcache.WriteReq_mshr_miss_rate::total     0.008176                       # mshr miss rate for WriteReq accesses
system.cpu.dcache.WriteReq_avg_mshr_miss_latency::.switch_cpus.data  4608.962128                       # average WriteReq mshr miss latency
system.cpu.dcache.WriteReq_avg_mshr_miss_latency::total  4608.962128                       # average WriteReq mshr miss latency
system.cpu.dcache.SoftPFReq_hits::.switch_cpus.data         1116                       # number of SoftPFReq hits
system.cpu.dcache.SoftPFReq_hits::total          1116                       # number of SoftPFReq hits
system.cpu.dcache.SoftPFReq_misses::.switch_cpus.data        23035                       # number of SoftPFReq misses
system.cpu.dcache.SoftPFReq_misses::total        23035                       # number of SoftPFReq misses
system.cpu.dcache.SoftPFReq_accesses::.switch_cpus.data        24151                       # number of SoftPFReq accesses(hits+misses)
system.cpu.dcache.SoftPFReq_accesses::total        24151                       # number of SoftPFReq accesses(hits+misses)
system.cpu.dcache.SoftPFReq_miss_rate::.switch_cpus.data     0.953791                       # miss rate for SoftPFReq accesses
system.cpu.dcache.SoftPFReq_miss_rate::total     0.953791                       # miss rate for SoftPFReq accesses
system.cpu.dcache.SoftPFReq_mshr_misses::.switch_cpus.data         7679                       # number of SoftPFReq MSHR misses
system.cpu.dcache.SoftPFReq_mshr_misses::total         7679                       # number of SoftPFReq MSHR misses
system.cpu.dcache.SoftPFReq_mshr_miss_latency::.switch_cpus.data     33411222                       # number of SoftPFReq MSHR miss cycles
system.cpu.dcache.SoftPFReq_mshr_miss_latency::total     33411222                       # number of SoftPFReq MSHR miss cycles
system.cpu.dcache.SoftPFReq_mshr_miss_rate::.switch_cpus.data     0.317958                       # mshr miss rate for SoftPFReq accesses
system.cpu.dcache.SoftPFReq_mshr_miss_rate::total     0.317958                       # mshr miss rate for SoftPFReq accesses
system.cpu.dcache.SoftPFReq_avg_mshr_miss_latency::.switch_cpus.data  4350.986066                       # average SoftPFReq mshr miss latency
system.cpu.dcache.SoftPFReq_avg_mshr_miss_latency::total  4350.986066                       # average SoftPFReq mshr miss latency
system.cpu.dcache.power_state.pwrStateResidencyTicks::UNDEFINED 17928130429161                       # Cumulative time (in ticks) in various power states
system.cpu.dcache.tags.tagsinuse           506.251894                       # Cycle average of tags in use
system.cpu.dcache.tags.total_refs           118517340                       # Total number of references to valid blocks.
system.cpu.dcache.tags.sampled_refs           1721755                       # Sample count of references to valid blocks.
system.cpu.dcache.tags.avg_refs             68.835194                       # Average number of references to valid blocks.
system.cpu.dcache.tags.warmup_cycle      17895005580834                       # Cycle when the warmup percentage was hit.
system.cpu.dcache.tags.occ_blocks::.cpu.data     1.002314                       # Average occupied blocks per requestor
system.cpu.dcache.tags.occ_blocks::.switch_cpus.data   505.249580                       # Average occupied blocks per requestor
system.cpu.dcache.tags.occ_percent::.cpu.data     0.001958                       # Average percentage of cache occupancy
system.cpu.dcache.tags.occ_percent::.switch_cpus.data     0.986816                       # Average percentage of cache occupancy
system.cpu.dcache.tags.occ_percent::total     0.988773                       # Average percentage of cache occupancy
system.cpu.dcache.tags.occ_task_id_blocks::1024          512                       # Occupied blocks per task id
system.cpu.dcache.tags.age_task_id_blocks_1024::0          157                       # Occupied blocks per task id
system.cpu.dcache.tags.age_task_id_blocks_1024::1            4                       # Occupied blocks per task id
system.cpu.dcache.tags.age_task_id_blocks_1024::2           14                       # Occupied blocks per task id
system.cpu.dcache.tags.age_task_id_blocks_1024::3           70                       # Occupied blocks per task id
system.cpu.dcache.tags.age_task_id_blocks_1024::4          267                       # Occupied blocks per task id
system.cpu.dcache.tags.occ_task_id_percent::1024            1                       # Percentage of cache occupancy per task id
system.cpu.dcache.tags.tag_accesses         963520843                       # Number of tag accesses
system.cpu.dcache.tags.data_accesses        963520843                       # Number of data accesses
system.cpu.dcache.tags.power_state.pwrStateResidencyTicks::UNDEFINED 17928130429161                       # Cumulative time (in ticks) in various power states
system.cpu.dtb.rdAccesses                           6                       # TLB accesses on read requests
system.cpu.dtb.wrAccesses                           0                       # TLB accesses on write requests
system.cpu.dtb.rdMisses                             0                       # TLB misses on read requests
system.cpu.dtb.wrMisses                             0                       # TLB misses on write requests
system.cpu.dtb.walker.power_state.pwrStateResidencyTicks::UNDEFINED 17928130429161                       # Cumulative time (in ticks) in various power states
system.cpu.icache.demand_hits::.cpu.inst           13                       # number of demand (read+write) hits
system.cpu.icache.demand_hits::.switch_cpus.inst     45451175                       # number of demand (read+write) hits
system.cpu.icache.demand_hits::total         45451188                       # number of demand (read+write) hits
system.cpu.icache.overall_hits::.cpu.inst           13                       # number of overall hits
system.cpu.icache.overall_hits::.switch_cpus.inst     45451175                       # number of overall hits
system.cpu.icache.overall_hits::total        45451188                       # number of overall hits
system.cpu.icache.demand_misses::.cpu.inst            3                       # number of demand (read+write) misses
system.cpu.icache.demand_misses::.switch_cpus.inst          769                       # number of demand (read+write) misses
system.cpu.icache.demand_misses::total            772                       # number of demand (read+write) misses
system.cpu.icache.overall_misses::.cpu.inst            3                       # number of overall misses
system.cpu.icache.overall_misses::.switch_cpus.inst          769                       # number of overall misses
system.cpu.icache.overall_misses::total           772                       # number of overall misses
system.cpu.icache.demand_miss_latency::.switch_cpus.inst     40743549                       # number of demand (read+write) miss cycles
system.cpu.icache.demand_miss_latency::total     40743549                       # number of demand (read+write) miss cycles
system.cpu.icache.overall_miss_latency::.switch_cpus.inst     40743549                       # number of overall miss cycles
system.cpu.icache.overall_miss_latency::total     40743549                       # number of overall miss cycles
system.cpu.icache.demand_accesses::.cpu.inst           16                       # number of demand (read+write) accesses
system.cpu.icache.demand_accesses::.switch_cpus.inst     45451944                       # number of demand (read+write) accesses
system.cpu.icache.demand_accesses::total     45451960                       # number of demand (read+write) accesses
system.cpu.icache.overall_accesses::.cpu.inst           16                       # number of overall (read+write) accesses
system.cpu.icache.overall_accesses::.switch_cpus.inst     45451944                       # number of overall (read+write) accesses
system.cpu.icache.overall_accesses::total     45451960                       # number of overall (read+write) accesses
system.cpu.icache.demand_miss_rate::.cpu.inst     0.187500                       # miss rate for demand accesses
system.cpu.icache.demand_miss_rate::.switch_cpus.inst     0.000017                       # miss rate for demand accesses
system.cpu.icache.demand_miss_rate::total     0.000017                       # miss rate for demand accesses
system.cpu.icache.overall_miss_rate::.cpu.inst     0.187500                       # miss rate for overall accesses
system.cpu.icache.overall_miss_rate::.switch_cpus.inst     0.000017                       # miss rate for overall accesses
system.cpu.icache.overall_miss_rate::total     0.000017                       # miss rate for overall accesses
system.cpu.icache.demand_avg_miss_latency::.switch_cpus.inst 52982.508453                       # average overall miss latency
system.cpu.icache.demand_avg_miss_latency::total 52776.617876                       # average overall miss latency
system.cpu.icache.overall_avg_miss_latency::.switch_cpus.inst 52982.508453                       # average overall miss latency
system.cpu.icache.overall_avg_miss_latency::total 52776.617876                       # average overall miss latency
system.cpu.icache.blocked_cycles::no_mshrs            0                       # number of cycles access was blocked
system.cpu.icache.blocked_cycles::no_targets            0                       # number of cycles access was blocked
system.cpu.icache.blocked::no_mshrs                 0                       # number of cycles access was blocked
system.cpu.icache.blocked::no_targets               0                       # number of cycles access was blocked
system.cpu.icache.avg_blocked_cycles::no_mshrs          nan                       # average number of cycles each access was blocked
system.cpu.icache.avg_blocked_cycles::no_targets          nan                       # average number of cycles each access was blocked
system.cpu.icache.writebacks::.writebacks          251                       # number of writebacks
system.cpu.icache.writebacks::total               251                       # number of writebacks
system.cpu.icache.demand_mshr_hits::.switch_cpus.inst           68                       # number of demand (read+write) MSHR hits
system.cpu.icache.demand_mshr_hits::total           68                       # number of demand (read+write) MSHR hits
system.cpu.icache.overall_mshr_hits::.switch_cpus.inst           68                       # number of overall MSHR hits
system.cpu.icache.overall_mshr_hits::total           68                       # number of overall MSHR hits
system.cpu.icache.demand_mshr_misses::.switch_cpus.inst          701                       # number of demand (read+write) MSHR misses
system.cpu.icache.demand_mshr_misses::total          701                       # number of demand (read+write) MSHR misses
system.cpu.icache.overall_mshr_misses::.switch_cpus.inst          701                       # number of overall MSHR misses
system.cpu.icache.overall_mshr_misses::total          701                       # number of overall MSHR misses
system.cpu.icache.demand_mshr_miss_latency::.switch_cpus.inst     36014283                       # number of demand (read+write) MSHR miss cycles
system.cpu.icache.demand_mshr_miss_latency::total     36014283                       # number of demand (read+write) MSHR miss cycles
system.cpu.icache.overall_mshr_miss_latency::.switch_cpus.inst     36014283                       # number of overall MSHR miss cycles
system.cpu.icache.overall_mshr_miss_latency::total     36014283                       # number of overall MSHR miss cycles
system.cpu.icache.demand_mshr_miss_rate::.switch_cpus.inst     0.000015                       # mshr miss rate for demand accesses
system.cpu.icache.demand_mshr_miss_rate::total     0.000015                       # mshr miss rate for demand accesses
system.cpu.icache.overall_mshr_miss_rate::.switch_cpus.inst     0.000015                       # mshr miss rate for overall accesses
system.cpu.icache.overall_mshr_miss_rate::total     0.000015                       # mshr miss rate for overall accesses
system.cpu.icache.demand_avg_mshr_miss_latency::.switch_cpus.inst 51375.582026                       # average overall mshr miss latency
system.cpu.icache.demand_avg_mshr_miss_latency::total 51375.582026                       # average overall mshr miss latency
system.cpu.icache.overall_avg_mshr_miss_latency::.switch_cpus.inst 51375.582026                       # average overall mshr miss latency
system.cpu.icache.overall_avg_mshr_miss_latency::total 51375.582026                       # average overall mshr miss latency
system.cpu.icache.replacements                    251                       # number of replacements
system.cpu.icache.ReadReq_hits::.cpu.inst           13                       # number of ReadReq hits
system.cpu.icache.ReadReq_hits::.switch_cpus.inst     45451175                       # number of ReadReq hits
system.cpu.icache.ReadReq_hits::total        45451188                       # number of ReadReq hits
system.cpu.icache.ReadReq_misses::.cpu.inst            3                       # number of ReadReq misses
system.cpu.icache.ReadReq_misses::.switch_cpus.inst          769                       # number of ReadReq misses
system.cpu.icache.ReadReq_misses::total           772                       # number of ReadReq misses
system.cpu.icache.ReadReq_miss_latency::.switch_cpus.inst     40743549                       # number of ReadReq miss cycles
system.cpu.icache.ReadReq_miss_latency::total     40743549                       # number of ReadReq miss cycles
system.cpu.icache.ReadReq_accesses::.cpu.inst           16                       # number of ReadReq accesses(hits+misses)
system.cpu.icache.ReadReq_accesses::.switch_cpus.inst     45451944                       # number of ReadReq accesses(hits+misses)
system.cpu.icache.ReadReq_accesses::total     45451960                       # number of ReadReq accesses(hits+misses)
system.cpu.icache.ReadReq_miss_rate::.cpu.inst     0.187500                       # miss rate for ReadReq accesses
system.cpu.icache.ReadReq_miss_rate::.switch_cpus.inst     0.000017                       # miss rate for ReadReq accesses
system.cpu.icache.ReadReq_miss_rate::total     0.000017                       # miss rate for ReadReq accesses
system.cpu.icache.ReadReq_avg_miss_latency::.switch_cpus.inst 52982.508453                       # average ReadReq miss latency
system.cpu.icache.ReadReq_avg_miss_latency::total 52776.617876                       # average ReadReq miss latency
system.cpu.icache.ReadReq_mshr_hits::.switch_cpus.inst           68                       # number of ReadReq MSHR hits
system.cpu.icache.ReadReq_mshr_hits::total           68                       # number of ReadReq MSHR hits
system.cpu.icache.ReadReq_mshr_misses::.switch_cpus.inst          701                       # number of ReadReq MSHR misses
system.cpu.icache.ReadReq_mshr_misses::total          701                       # number of ReadReq MSHR misses
system.cpu.icache.ReadReq_mshr_miss_latency::.switch_cpus.inst     36014283                       # number of ReadReq MSHR miss cycles
system.cpu.icache.ReadReq_mshr_miss_latency::total     36014283                       # number of ReadReq MSHR miss cycles
system.cpu.icache.ReadReq_mshr_miss_rate::.switch_cpus.inst     0.000015                       # mshr miss rate for ReadReq accesses
system.cpu.icache.ReadReq_mshr_miss_rate::total     0.000015                       # mshr miss rate for ReadReq accesses
system.cpu.icache.ReadReq_avg_mshr_miss_latency::.switch_cpus.inst 51375.582026                       # average ReadReq mshr miss latency
system.cpu.icache.ReadReq_avg_mshr_miss_latency::total 51375.582026                       # average ReadReq mshr miss latency
system.cpu.icache.power_state.pwrStateResidencyTicks::UNDEFINED 17928130429161                       # Cumulative time (in ticks) in various power states
system.cpu.icache.tags.tagsinuse           440.340145                       # Cycle average of tags in use
system.cpu.icache.tags.total_refs            45451892                       # Total number of references to valid blocks.
system.cpu.icache.tags.sampled_refs               704                       # Sample count of references to valid blocks.
system.cpu.icache.tags.avg_refs          64562.346591                       # Average number of references to valid blocks.
system.cpu.icache.tags.warmup_cycle      17895005580501                       # Cycle when the warmup percentage was hit.
system.cpu.icache.tags.occ_blocks::.cpu.inst     2.999999                       # Average occupied blocks per requestor
system.cpu.icache.tags.occ_blocks::.switch_cpus.inst   437.340146                       # Average occupied blocks per requestor
system.cpu.icache.tags.occ_percent::.cpu.inst     0.005859                       # Average percentage of cache occupancy
system.cpu.icache.tags.occ_percent::.switch_cpus.inst     0.854180                       # Average percentage of cache occupancy
system.cpu.icache.tags.occ_percent::total     0.860039                       # Average percentage of cache occupancy
system.cpu.icache.tags.occ_task_id_blocks::1024          444                       # Occupied blocks per task id
system.cpu.icache.tags.age_task_id_blocks_1024::3            5                       # Occupied blocks per task id
system.cpu.icache.tags.age_task_id_blocks_1024::4          439                       # Occupied blocks per task id
system.cpu.icache.tags.occ_task_id_percent::1024     0.867188                       # Percentage of cache occupancy per task id
system.cpu.icache.tags.tag_accesses         363616384                       # Number of tag accesses
system.cpu.icache.tags.data_accesses        363616384                       # Number of data accesses
system.cpu.icache.tags.power_state.pwrStateResidencyTicks::UNDEFINED 17928130429161                       # Cumulative time (in ticks) in various power states
system.cpu.interrupts.clk_domain.clock           5328                       # Clock period in ticks
system.cpu.itb.rdAccesses                           0                       # TLB accesses on read requests
system.cpu.itb.wrAccesses                          16                       # TLB accesses on write requests
system.cpu.itb.rdMisses                             0                       # TLB misses on read requests
system.cpu.itb.wrMisses                             0                       # TLB misses on write requests
system.cpu.itb.walker.power_state.pwrStateResidencyTicks::UNDEFINED 17928130429161                       # Cumulative time (in ticks) in various power states
system.cpu.l2bus.trans_dist::ReadResp         1392008                       # Transaction distribution
system.cpu.l2bus.trans_dist::WritebackDirty       467605                       # Transaction distribution
system.cpu.l2bus.trans_dist::WritebackClean      1253889                       # Transaction distribution
system.cpu.l2bus.trans_dist::UpgradeReq             8                       # Transaction distribution
system.cpu.l2bus.trans_dist::UpgradeResp            8                       # Transaction distribution
system.cpu.l2bus.trans_dist::ReadExReq         330451                       # Transaction distribution
system.cpu.l2bus.trans_dist::ReadExResp        330451                       # Transaction distribution
system.cpu.l2bus.trans_dist::ReadSharedReq      1392008                       # Transaction distribution
system.cpu.l2bus.pkt_count_system.cpu.icache.mem_side_port::system.cpu.l2cache.cpu_side_port         1651                       # Packet count per connected requestor and responder (bytes)
system.cpu.l2bus.pkt_count_system.cpu.dcache.mem_side_port::system.cpu.l2cache.cpu_side_port      5164769                       # Packet count per connected requestor and responder (bytes)
system.cpu.l2bus.pkt_count::total             5166420                       # Packet count per connected requestor and responder (bytes)
system.cpu.l2bus.pkt_size_system.cpu.icache.mem_side_port::system.cpu.l2cache.cpu_side_port        60608                       # Cumulative packet size per connected requestor and responder (bytes)
system.cpu.l2bus.pkt_size_system.cpu.dcache.mem_side_port::system.cpu.l2cache.cpu_side_port    220351872                       # Cumulative packet size per connected requestor and responder (bytes)
system.cpu.l2bus.pkt_size::total            220412480                       # Cumulative packet size per connected requestor and responder (bytes)
system.cpu.l2bus.snoops                             8                       # Total snoops (count)
system.cpu.l2bus.snoopTraffic                     512                       # Total snoop traffic (bytes)
system.cpu.l2bus.snoop_fanout::samples        1722467                       # Request fanout histogram
system.cpu.l2bus.snoop_fanout::mean          0.022020                       # Request fanout histogram
system.cpu.l2bus.snoop_fanout::stdev         0.146747                       # Request fanout histogram
system.cpu.l2bus.snoop_fanout::underflows            0      0.00%      0.00% # Request fanout histogram
system.cpu.l2bus.snoop_fanout::0              1684539     97.80%     97.80% # Request fanout histogram
system.cpu.l2bus.snoop_fanout::1                37928      2.20%    100.00% # Request fanout histogram
system.cpu.l2bus.snoop_fanout::2                    0      0.00%    100.00% # Request fanout histogram
system.cpu.l2bus.snoop_fanout::3                    0      0.00%    100.00% # Request fanout histogram
system.cpu.l2bus.snoop_fanout::overflows            0      0.00%    100.00% # Request fanout histogram
system.cpu.l2bus.snoop_fanout::min_value            0                       # Request fanout histogram
system.cpu.l2bus.snoop_fanout::max_value            1                       # Request fanout histogram
system.cpu.l2bus.snoop_fanout::total          1722467                       # Request fanout histogram
system.cpu.l2bus.power_state.pwrStateResidencyTicks::UNDEFINED 17928130429161                       # Cumulative time (in ticks) in various power states
system.cpu.l2bus.reqLayer0.occupancy       2293352019                       # Layer occupancy (ticks)
system.cpu.l2bus.reqLayer0.utilization            6.9                       # Layer utilization (%)
system.cpu.l2bus.respLayer0.occupancy          703287                       # Layer occupancy (ticks)
system.cpu.l2bus.respLayer0.utilization           0.0                       # Layer utilization (%)
system.cpu.l2bus.respLayer1.occupancy      1720032912                       # Layer occupancy (ticks)
system.cpu.l2bus.respLayer1.utilization           5.2                       # Layer utilization (%)
system.cpu.l2cache.demand_hits::.switch_cpus.inst          246                       # number of demand (read+write) hits
system.cpu.l2cache.demand_hits::.switch_cpus.data      1720823                       # number of demand (read+write) hits
system.cpu.l2cache.demand_hits::total         1721069                       # number of demand (read+write) hits
system.cpu.l2cache.overall_hits::.switch_cpus.inst          246                       # number of overall hits
system.cpu.l2cache.overall_hits::.switch_cpus.data      1720823                       # number of overall hits
system.cpu.l2cache.overall_hits::total        1721069                       # number of overall hits
system.cpu.l2cache.demand_misses::.cpu.inst            3                       # number of demand (read+write) misses
system.cpu.l2cache.demand_misses::.cpu.data            3                       # number of demand (read+write) misses
system.cpu.l2cache.demand_misses::.switch_cpus.inst          447                       # number of demand (read+write) misses
system.cpu.l2cache.demand_misses::.switch_cpus.data          929                       # number of demand (read+write) misses
system.cpu.l2cache.demand_misses::total          1382                       # number of demand (read+write) misses
system.cpu.l2cache.overall_misses::.cpu.inst            3                       # number of overall misses
system.cpu.l2cache.overall_misses::.cpu.data            3                       # number of overall misses
system.cpu.l2cache.overall_misses::.switch_cpus.inst          447                       # number of overall misses
system.cpu.l2cache.overall_misses::.switch_cpus.data          929                       # number of overall misses
system.cpu.l2cache.overall_misses::total         1382                       # number of overall misses
system.cpu.l2cache.demand_miss_latency::.switch_cpus.inst     34596702                       # number of demand (read+write) miss cycles
system.cpu.l2cache.demand_miss_latency::.switch_cpus.data     83166750                       # number of demand (read+write) miss cycles
system.cpu.l2cache.demand_miss_latency::total    117763452                       # number of demand (read+write) miss cycles
system.cpu.l2cache.overall_miss_latency::.switch_cpus.inst     34596702                       # number of overall miss cycles
system.cpu.l2cache.overall_miss_latency::.switch_cpus.data     83166750                       # number of overall miss cycles
system.cpu.l2cache.overall_miss_latency::total    117763452                       # number of overall miss cycles
system.cpu.l2cache.demand_accesses::.cpu.inst            3                       # number of demand (read+write) accesses
system.cpu.l2cache.demand_accesses::.cpu.data            3                       # number of demand (read+write) accesses
system.cpu.l2cache.demand_accesses::.switch_cpus.inst          693                       # number of demand (read+write) accesses
system.cpu.l2cache.demand_accesses::.switch_cpus.data      1721752                       # number of demand (read+write) accesses
system.cpu.l2cache.demand_accesses::total      1722451                       # number of demand (read+write) accesses
system.cpu.l2cache.overall_accesses::.cpu.inst            3                       # number of overall (read+write) accesses
system.cpu.l2cache.overall_accesses::.cpu.data            3                       # number of overall (read+write) accesses
system.cpu.l2cache.overall_accesses::.switch_cpus.inst          693                       # number of overall (read+write) accesses
system.cpu.l2cache.overall_accesses::.switch_cpus.data      1721752                       # number of overall (read+write) accesses
system.cpu.l2cache.overall_accesses::total      1722451                       # number of overall (read+write) accesses
system.cpu.l2cache.demand_miss_rate::.cpu.inst            1                       # miss rate for demand accesses
system.cpu.l2cache.demand_miss_rate::.cpu.data            1                       # miss rate for demand accesses
system.cpu.l2cache.demand_miss_rate::.switch_cpus.inst     0.645022                       # miss rate for demand accesses
system.cpu.l2cache.demand_miss_rate::.switch_cpus.data     0.000540                       # miss rate for demand accesses
system.cpu.l2cache.demand_miss_rate::total     0.000802                       # miss rate for demand accesses
system.cpu.l2cache.overall_miss_rate::.cpu.inst            1                       # miss rate for overall accesses
system.cpu.l2cache.overall_miss_rate::.cpu.data            1                       # miss rate for overall accesses
system.cpu.l2cache.overall_miss_rate::.switch_cpus.inst     0.645022                       # miss rate for overall accesses
system.cpu.l2cache.overall_miss_rate::.switch_cpus.data     0.000540                       # miss rate for overall accesses
system.cpu.l2cache.overall_miss_rate::total     0.000802                       # miss rate for overall accesses
system.cpu.l2cache.demand_avg_miss_latency::.switch_cpus.inst 77397.543624                       # average overall miss latency
system.cpu.l2cache.demand_avg_miss_latency::.switch_cpus.data 89522.874058                       # average overall miss latency
system.cpu.l2cache.demand_avg_miss_latency::total 85212.338640                       # average overall miss latency
system.cpu.l2cache.overall_avg_miss_latency::.switch_cpus.inst 77397.543624                       # average overall miss latency
system.cpu.l2cache.overall_avg_miss_latency::.switch_cpus.data 89522.874058                       # average overall miss latency
system.cpu.l2cache.overall_avg_miss_latency::total 85212.338640                       # average overall miss latency
system.cpu.l2cache.blocked_cycles::no_mshrs            0                       # number of cycles access was blocked
system.cpu.l2cache.blocked_cycles::no_targets            0                       # number of cycles access was blocked
system.cpu.l2cache.blocked::no_mshrs                0                       # number of cycles access was blocked
system.cpu.l2cache.blocked::no_targets              0                       # number of cycles access was blocked
system.cpu.l2cache.avg_blocked_cycles::no_mshrs          nan                       # average number of cycles each access was blocked
system.cpu.l2cache.avg_blocked_cycles::no_targets          nan                       # average number of cycles each access was blocked
system.cpu.l2cache.demand_mshr_hits::.switch_cpus.inst            7                       # number of demand (read+write) MSHR hits
system.cpu.l2cache.demand_mshr_hits::total            7                       # number of demand (read+write) MSHR hits
system.cpu.l2cache.overall_mshr_hits::.switch_cpus.inst            7                       # number of overall MSHR hits
system.cpu.l2cache.overall_mshr_hits::total            7                       # number of overall MSHR hits
system.cpu.l2cache.demand_mshr_misses::.switch_cpus.inst          440                       # number of demand (read+write) MSHR misses
[...]
system.switch_cpus.commit.numCommittedDist::1      7240916      7.83%     25.11% # Number of insts commited each cycle
system.switch_cpus.commit.numCommittedDist::2      5082547      5.50%     30.61% # Number of insts commited each cycle
system.switch_cpus.commit.numCommittedDist::3     10116108     10.94%     41.54% # Number of insts commited each cycle
system.switch_cpus.commit.numCommittedDist::4      3178954      3.44%     44.98% # Number of insts commited each cycle
system.switch_cpus.commit.numCommittedDist::5      2227097      2.41%     47.39% # Number of insts commited each cycle
system.switch_cpus.commit.numCommittedDist::6      3399572      3.68%     51.07% # Number of insts commited each cycle
system.switch_cpus.commit.numCommittedDist::7      3499756      3.78%     54.85% # Number of insts commited each cycle
system.switch_cpus.commit.numCommittedDist::8     41749759     45.15%    100.00% # Number of insts commited each cycle
system.switch_cpus.commit.numCommittedDist::overflows            0      0.00%    100.00% # Number of insts commited each cycle
system.switch_cpus.commit.numCommittedDist::min_value            0                       # Number of insts commited each cycle
system.switch_cpus.commit.numCommittedDist::max_value            8                       # Number of insts commited each cycle
system.switch_cpus.commit.numCommittedDist::total     92472463                       # Number of insts commited each cycle
system.switch_cpus.commit.instsCommitted    250000002                       # Number of instructions committed
system.switch_cpus.commit.opsCommitted      450499431                       # Number of ops (including micro ops) committed
system.switch_cpus.commit.memRefs           132213705                       # Number of memory references committed
system.switch_cpus.commit.loads              91796576                       # Number of loads committed
system.switch_cpus.commit.amos                      0                       # Number of atomic instructions committed
system.switch_cpus.commit.membars                   0                       # Number of memory barriers committed
system.switch_cpus.commit.branches           44284657                       # Number of branches committed
system.switch_cpus.commit.vector                    0                       # Number of committed Vector instructions.
system.switch_cpus.commit.floating           93661116                       # Number of committed floating point instructions.
system.switch_cpus.commit.integer           395884411                       # Number of committed integer instructions.
system.switch_cpus.commit.functionCalls       6935287                       # Number of function calls committed.
system.switch_cpus.commit.committedInstType_0::No_OpClass      2418326      0.54%      0.54% # Class of committed instruction
system.switch_cpus.commit.committedInstType_0::IntAlu    268729942     59.65%     60.19% # Class of committed instruction
system.switch_cpus.commit.committedInstType_0::IntMult       953156      0.21%     60.40% # Class of committed instruction
system.switch_cpus.commit.committedInstType_0::IntDiv            0      0.00%     60.40% # Class of committed instruction
system.switch_cpus.commit.committedInstType_0::FloatAdd      1017886      0.23%     60.63% # Class of committed instruction
system.switch_cpus.commit.committedInstType_0::FloatCmp            0      0.00%     60.63% # Class of committed instruction
system.switch_cpus.commit.committedInstType_0::FloatCvt            0      0.00%     60.63% # Class of committed instruction
system.switch_cpus.commit.committedInstType_0::FloatMult            0      0.00%     60.63% # Class of committed instruction
system.switch_cpus.commit.committedInstType_0::FloatMultAcc            0      0.00%     60.63% # Class of committed instruction
system.switch_cpus.commit.committedInstType_0::FloatDiv            0      0.00%     60.63% # Class of committed instruction
system.switch_cpus.commit.committedInstType_0::FloatMisc            0      0.00%     60.63% # Class of committed instruction
system.switch_cpus.commit.committedInstType_0::FloatSqrt            0      0.00%     60.63% # Class of committed instruction
system.switch_cpus.commit.committedInstType_0::SimdAdd            0      0.00%     60.63% # Class of committed instruction
system.switch_cpus.commit.committedInstType_0::SimdAddAcc            0      0.00%     60.63% # Class of committed instruction
system.switch_cpus.commit.committedInstType_0::SimdAlu      2922546      0.65%     61.27% # Class of committed instruction
system.switch_cpus.commit.committedInstType_0::SimdCmp            0      0.00%     61.27% # Class of committed instruction
system.switch_cpus.commit.committedInstType_0::SimdCvt            0      0.00%     61.27% # Class of committed instruction
system.switch_cpus.commit.committedInstType_0::SimdMisc        80071      0.02%     61.29% # Class of committed instruction
system.switch_cpus.commit.committedInstType_0::SimdMult            0      0.00%     61.29% # Class of committed instruction
system.switch_cpus.commit.committedInstType_0::SimdMultAcc            0      0.00%     61.29% # Class of committed instruction
system.switch_cpus.commit.committedInstType_0::SimdShift            0      0.00%     61.29% # Class of committed instruction
system.switch_cpus.commit.committedInstType_0::SimdShiftAcc            0      0.00%     61.29% # Class of committed instruction
system.switch_cpus.commit.committedInstType_0::SimdDiv            0      0.00%     61.29% # Class of committed instruction
system.switch_cpus.commit.committedInstType_0::SimdSqrt            0      0.00%     61.29% # Class of committed instruction
system.switch_cpus.commit.committedInstType_0::SimdFloatAdd     17150648      3.81%     65.10% # Class of committed instruction
system.switch_cpus.commit.committedInstType_0::SimdFloatAlu            0      0.00%     65.10% # Class of committed instruction
system.switch_cpus.commit.committedInstType_0::SimdFloatCmp        61424      0.01%     65.11% # Class of committed instruction
system.switch_cpus.commit.committedInstType_0::SimdFloatCvt      7400243      1.64%     66.76% # Class of committed instruction
system.switch_cpus.commit.committedInstType_0::SimdFloatDiv       592164      0.13%     66.89% # Class of committed instruction
system.switch_cpus.commit.committedInstType_0::SimdFloatMisc            0      0.00%     66.89% # Class of committed instruction
system.switch_cpus.commit.committedInstType_0::SimdFloatMult     16927587      3.76%     70.64% # Class of committed instruction
system.switch_cpus.commit.committedInstType_0::SimdFloatMultAcc            0      0.00%     70.64% # Class of committed instruction
system.switch_cpus.commit.committedInstType_0::SimdFloatSqrt        31733      0.01%     70.65% # Class of committed instruction
system.switch_cpus.commit.committedInstType_0::SimdReduceAdd            0      0.00%     70.65% # Class of committed instruction
system.switch_cpus.commit.committedInstType_0::SimdReduceAlu            0      0.00%     70.65% # Class of committed instruction
system.switch_cpus.commit.committedInstType_0::SimdReduceCmp            0      0.00%     70.65% # Class of committed instruction
system.switch_cpus.commit.committedInstType_0::SimdFloatReduceAdd            0      0.00%     70.65% # Class of committed instruction
system.switch_cpus.commit.committedInstType_0::SimdFloatReduceCmp            0      0.00%     70.65% # Class of committed instruction
system.switch_cpus.commit.committedInstType_0::SimdAes            0      0.00%     70.65% # Class of committed instruction
system.switch_cpus.commit.committedInstType_0::SimdAesMix            0      0.00%     70.65% # Class of committed instruction
system.switch_cpus.commit.committedInstType_0::SimdSha1Hash            0      0.00%     70.65% # Class of committed instruction
system.switch_cpus.commit.committedInstType_0::SimdSha1Hash2            0      0.00%     70.65% # Class of committed instruction
system.switch_cpus.commit.committedInstType_0::SimdSha256Hash            0      0.00%     70.65% # Class of committed instruction
system.switch_cpus.commit.committedInstType_0::SimdSha256Hash2            0      0.00%     70.65% # Class of committed instruction
system.switch_cpus.commit.committedInstType_0::SimdShaSigma2            0      0.00%     70.65% # Class of committed instruction
system.switch_cpus.commit.committedInstType_0::SimdShaSigma3            0      0.00%     70.65% # Class of committed instruction
system.switch_cpus.commit.committedInstType_0::SimdPredAlu            0      0.00%     70.65% # Class of committed instruction
system.switch_cpus.commit.committedInstType_0::MemRead     56694738     12.58%     83.24% # Class of committed instruction
system.switch_cpus.commit.committedInstType_0::MemWrite     34125841      7.58%     90.81% # Class of committed instruction
system.switch_cpus.commit.committedInstType_0::FloatMemRead     35101838      7.79%     98.60% # Class of committed instruction
system.switch_cpus.commit.committedInstType_0::FloatMemWrite      6291288      1.40%    100.00% # Class of committed instruction
system.switch_cpus.commit.committedInstType_0::IprAccess            0      0.00%    100.00% # Class of committed instruction
system.switch_cpus.commit.committedInstType_0::InstPrefetch            0      0.00%    100.00% # Class of committed instruction
system.switch_cpus.commit.committedInstType_0::total    450499431                       # Class of committed instruction
system.switch_cpus.commit.commitEligibleSamples     41749759                       # number cycles where commit BW limit reached
system.switch_cpus.decode.idleCycles          5907987                       # Number of cycles decode is idle
system.switch_cpus.decode.blockedCycles      15061227                       # Number of cycles decode is blocked
system.switch_cpus.decode.runCycles          71364718                       # Number of cycles decode is running
system.switch_cpus.decode.unblockCycles       6084737                       # Number of cycles decode is unblocking
system.switch_cpus.decode.squashCycles         993413                       # Number of cycles decode is squashing
system.switch_cpus.decode.branchResolved     21313274                       # Number of times decode resolved a  branch
system.switch_cpus.decode.branchMispred         70948                       # Number of times decode detected a branch misprediction
system.switch_cpus.decode.decodedInsts      520799114                       # Number of instructions handled by decode
system.switch_cpus.decode.squashedInsts        430867                       # Number of squashed instructions handled by decode
system.switch_cpus.dtb.rdAccesses            98387210                       # TLB accesses on read requests
system.switch_cpus.dtb.wrAccesses            42655703                       # TLB accesses on write requests
system.switch_cpus.dtb.rdMisses                667703                       # TLB misses on read requests
system.switch_cpus.dtb.wrMisses                108436                       # TLB misses on write requests
system.switch_cpus.dtb.walker.power_state.pwrStateResidencyTicks::UNDEFINED 17928130429161                       # Cumulative time (in ticks) in various power states
system.switch_cpus.fetch.icacheStallCycles       969421                       # Number of cycles fetch is stalled on an Icache miss
system.switch_cpus.fetch.insts              294849858                       # Number of instructions fetch has processed
system.switch_cpus.fetch.branches            52469240                       # Number of branches that fetch encountered
system.switch_cpus.fetch.predictedBranches     32890980                       # Number of branches that fetch has predicted taken
system.switch_cpus.fetch.cycles              97378360                       # Number of cycles fetch has run and was not squashing or blocked
system.switch_cpus.fetch.squashCycles         2127692                       # Number of cycles fetch has spent squashing
system.switch_cpus.fetch.miscStallCycles           57                       # Number of cycles fetch has spent waiting on interrupts,or bad addresses, or out of MSHRs
system.switch_cpus.fetch.pendingTrapStallCycles          352                       # Number of stall cycles due to pending traps
system.switch_cpus.fetch.pendingQuiesceStallCycles           47                       # Number of stall cycles due to pending quiesce instructions
system.switch_cpus.fetch.cacheLines          45451944                       # Number of cache lines fetched
system.switch_cpus.fetch.icacheSquashes           349                       # Number of outstanding Icache misses that were squashed
system.switch_cpus.fetch.nisnDist::samples     99412083                       # Number of instructions fetched each cycle (Total)
system.switch_cpus.fetch.nisnDist::mean      5.366011                       # Number of instructions fetched each cycle (Total)
system.switch_cpus.fetch.nisnDist::stdev     2.940565                       # Number of instructions fetched each cycle (Total)
system.switch_cpus.fetch.nisnDist::underflows            0      0.00%      0.00% # Number of instructions fetched each cycle (Total)
system.switch_cpus.fetch.nisnDist::0         11500183     11.57%     11.57% # Number of instructions fetched each cycle (Total)
system.switch_cpus.fetch.nisnDist::1          4185228      4.21%     15.78% # Number of instructions fetched each cycle (Total)
system.switch_cpus.fetch.nisnDist::2          6650638      6.69%     22.47% # Number of instructions fetched each cycle (Total)
system.switch_cpus.fetch.nisnDist::3          4383139      4.41%     26.88% # Number of instructions fetched each cycle (Total)
system.switch_cpus.fetch.nisnDist::4         11995031     12.07%     38.94% # Number of instructions fetched each cycle (Total)
system.switch_cpus.fetch.nisnDist::5          3252971      3.27%     42.22% # Number of instructions fetched each cycle (Total)
system.switch_cpus.fetch.nisnDist::6          8519590      8.57%     50.79% # Number of instructions fetched each cycle (Total)
system.switch_cpus.fetch.nisnDist::7          3954492      3.98%     54.76% # Number of instructions fetched each cycle (Total)
system.switch_cpus.fetch.nisnDist::8         44970811     45.24%    100.00% # Number of instructions fetched each cycle (Total)
system.switch_cpus.fetch.nisnDist::overflows            0      0.00%    100.00% # Number of instructions fetched each cycle (Total)
system.switch_cpus.fetch.nisnDist::min_value            0                       # Number of instructions fetched each cycle (Total)
system.switch_cpus.fetch.nisnDist::max_value            8                       # Number of instructions fetched each cycle (Total)
system.switch_cpus.fetch.nisnDist::total     99412083                       # Number of instructions fetched each cycle (Total)
system.switch_cpus.fetch.branchRate          0.527467                       # Number of branch fetches per cycle
system.switch_cpus.fetch.rate                2.964090                       # Number of inst fetches per cycle
system.switch_cpus.itb.rdAccesses                   0                       # TLB accesses on read requests
system.switch_cpus.itb.wrAccesses            45452002                       # TLB accesses on write requests
system.switch_cpus.itb.rdMisses                     0                       # TLB misses on read requests
system.switch_cpus.itb.wrMisses                   118                       # TLB misses on write requests
system.switch_cpus.itb.walker.power_state.pwrStateResidencyTicks::UNDEFINED 17928130429161                       # Cumulative time (in ticks) in various power states
system.switch_cpus.lsq0.forwLoads            18298937                       # Number of loads that had data forwarded from stores
system.switch_cpus.lsq0.squashedLoads        11160786                       # Number of loads squashed
system.switch_cpus.lsq0.ignoredResponses         8665                       # Number of memory responses ignored because the instruction is squashed
system.switch_cpus.lsq0.memOrderViolation        17504                       # Number of memory ordering violations
system.switch_cpus.lsq0.squashedStores        4981731                       # Number of stores squashed
system.switch_cpus.lsq0.rescheduledLoads        60189                       # Number of loads that were rescheduled
system.switch_cpus.lsq0.blockedByCache              0                       # Number of times an access to memory failed due to the cache being blocked
system.switch_cpus.power_state.pwrStateResidencyTicks::OFF  33124848993                       # Cumulative time (in ticks) in various power states
system.switch_cpus.rename.squashCycles         993413                       # Number of cycles rename is squashing
system.switch_cpus.rename.idleCycles          8888654                       # Number of cycles rename is idle
system.switch_cpus.rename.blockCycles         6436875                       # Number of cycles rename is blocking
system.switch_cpus.rename.serializeStallCycles         1315                       # count of cycles rename stalledfor serializing inst
system.switch_cpus.rename.runCycles          74366744                       # Number of cycles rename is running
system.switch_cpus.rename.unblockCycles       8725067                       # Number of cycles rename is unblocking
system.switch_cpus.rename.renamedInsts      514588405                       # Number of instructions processed by rename
system.switch_cpus.rename.ROBFullEvents         41209                       # Number of times rename has blocked due to ROB full
system.switch_cpus.rename.IQFullEvents        2379721                       # Number of times rename has blocked due to IQ full
system.switch_cpus.rename.LQFullEvents        1809165                       # Number of times rename has blocked due to LQ full
system.switch_cpus.rename.SQFullEvents        3021275                       # Number of times rename has blocked due to SQ full
system.switch_cpus.rename.renamedOperands    520568397                       # Number of destination operands rename has renamed
system.switch_cpus.rename.lookups          1355589767                       # Number of register rename lookups that rename has made
system.switch_cpus.rename.intLookups        720013894                       # Number of integer rename lookups
system.switch_cpus.rename.fpLookups         157124440                       # Number of floating rename lookups
system.switch_cpus.rename.committedMaps     455227885                       # Number of HB maps that are committed
system.switch_cpus.rename.undoneMaps         65340411                       # Number of HB maps that are undone due to squashing
system.switch_cpus.rename.serializing               3                       # count of serializing insts renamed
system.switch_cpus.rename.tempSerializing            3                       # count of temporary serializing insts renamed
system.switch_cpus.rename.skidInsts          23166032                       # count of insts added to the skid buffer
system.switch_cpus.rob.reads                552987856                       # The number of ROB reads
system.switch_cpus.rob.writes              1011479695                       # The number of ROB writes
system.switch_cpus.thread0.numInsts         250000002                       # Number of Instructions committed
system.switch_cpus.thread0.numOps           450499431                       # Number of Ops committed
system.switch_cpus.thread0.numMemRefs               0                       # Number of Memory References
system.voltage_domain.voltage                       1                       # Voltage in Volts

---------- End Simulation Statistics   ----------
