
---------- Begin Simulation Statistics ----------
final_tick                               13804615963602                       # Number of ticks from beginning of simulation (restored from checkpoints and never reset)
host_inst_rate                                 103298                       # Simulator instruction rate (inst/s)
host_mem_usage                               17322216                       # Number of bytes of host memory used
host_op_rate                                   142419                       # Simulator op (including micro ops) rate (op/s)
host_seconds                                  6254.77                       # Real time elapsed on the host
host_tick_rate                               13679693                       # Simulator tick rate (ticks/s)
sim_freq                                 1000000000000                       # Frequency of simulated ticks
sim_insts                                   646103778                       # Number of instructions simulated
sim_ops                                     890799965                       # Number of ops (including micro ops) simulated
sim_seconds                                  0.085563                       # Number of seconds simulated
sim_ticks                                 85563367983                       # Number of ticks simulated
system.cpu0.committedInsts                         17                       # Number of instructions committed
system.cpu0.committedOps                           20                       # Number of ops (including micro ops) committed
system.cpu0.idle_fraction                           0                       # Percentage of idle cycles
system.cpu0.l2bus.snoop_filter.hit_multi_requests            3                       # Number of requests hitting in the snoop filter with multiple (>1) holders of the requested data.
system.cpu0.l2bus.snoop_filter.hit_multi_snoops            0                       # Number of snoops hitting in the snoop filter with multiple (>1) holders of the requested data.
system.cpu0.l2bus.snoop_filter.hit_single_requests     18742971                       # Number of requests hitting in the snoop filter with a single holder of the requested data.
system.cpu0.l2bus.snoop_filter.hit_single_snoops        22589                       # Number of snoops hitting in the snoop filter with a single holder of the requested data.
system.cpu0.l2bus.snoop_filter.tot_requests     37486967                       # Total number of requests made to the snoop filter.
system.cpu0.l2bus.snoop_filter.tot_snoops        22589                       # Total number of snoops made to the snoop filter.
system.cpu0.mmucache.mmubus.snoop_filter.hit_multi_requests            0                       # Number of requests hitting in the snoop filter with multiple (>1) holders of the requested data.
system.cpu0.mmucache.mmubus.snoop_filter.hit_multi_snoops            0                       # Number of snoops hitting in the snoop filter with multiple (>1) holders of the requested data.
system.cpu0.mmucache.mmubus.snoop_filter.hit_single_requests            0                       # Number of requests hitting in the snoop filter with a single holder of the requested data.
system.cpu0.mmucache.mmubus.snoop_filter.hit_single_snoops            0                       # Number of snoops hitting in the snoop filter with a single holder of the requested data.
system.cpu0.mmucache.mmubus.snoop_filter.tot_requests            0                       # Total number of requests made to the snoop filter.
system.cpu0.mmucache.mmubus.snoop_filter.tot_snoops            0                       # Total number of snoops made to the snoop filter.
system.cpu0.not_idle_fraction                       1                       # Percentage of non-idle cycles
system.cpu0.numCycles                              30                       # number of cpu cycles simulated
system.cpu0.numWorkItemsCompleted                   0                       # number of work items this cpu completed
system.cpu0.numWorkItemsStarted                     0                       # number of work items this cpu started
system.cpu0.num_busy_cycles                        30                       # Number of busy cycles
system.cpu0.num_conditional_control_insts            0                       # number of instructions that are conditional controls
system.cpu0.num_fp_alu_accesses                    18                       # Number of float alu accesses
system.cpu0.num_fp_insts                           18                       # number of float instructions
system.cpu0.num_fp_register_reads                  28                       # number of times the floating registers were read
system.cpu0.num_fp_register_writes                 16                       # number of times the floating registers were written
system.cpu0.num_func_calls                          0                       # number of times a function call or return occured
system.cpu0.num_idle_cycles                         0                       # Number of idle cycles
system.cpu0.num_int_alu_accesses                   11                       # Number of integer alu accesses
system.cpu0.num_int_insts                          11                       # number of integer instructions
system.cpu0.num_int_register_reads                 33                       # number of times the integer registers were read
system.cpu0.num_int_register_writes                 2                       # number of times the integer registers were written
system.cpu0.num_load_insts                          9                       # Number of load instructions
system.cpu0.num_mem_refs                           11                       # number of memory refs
system.cpu0.num_store_insts                         2                       # Number of store instructions
system.cpu0.num_vec_alu_accesses                    0                       # Number of vector alu accesses
system.cpu0.num_vec_insts                           0                       # number of vector instructions
system.cpu0.num_vec_register_reads                  0                       # number of times the vector registers were read
system.cpu0.num_vec_register_writes                 0                       # number of times the vector registers were written
system.cpu0.op_class::No_OpClass                    0      0.00%      0.00% # Class of executed instruction
system.cpu0.op_class::IntAlu                        1      5.00%      5.00% # Class of executed instruction
system.cpu0.op_class::IntMult                       0      0.00%      5.00% # Class of executed instruction
system.cpu0.op_class::IntDiv                        0      0.00%      5.00% # Class of executed instruction
system.cpu0.op_class::FloatAdd                      0      0.00%      5.00% # Class of executed instruction
system.cpu0.op_class::FloatCmp                      0      0.00%      5.00% # Class of executed instruction
system.cpu0.op_class::FloatCvt                      0      0.00%      5.00% # Class of executed instruction
system.cpu0.op_class::FloatMult                     0      0.00%      5.00% # Class of executed instruction
system.cpu0.op_class::FloatMultAcc                  0      0.00%      5.00% # Class of executed instruction
system.cpu0.op_class::FloatDiv                      0      0.00%      5.00% # Class of executed instruction
system.cpu0.op_class::FloatMisc                     0      0.00%      5.00% # Class of executed instruction
system.cpu0.op_class::FloatSqrt                     0      0.00%      5.00% # Class of executed instruction
system.cpu0.op_class::SimdAdd                       0      0.00%      5.00% # Class of executed instruction
system.cpu0.op_class::SimdAddAcc                    0      0.00%      5.00% # Class of executed instruction
system.cpu0.op_class::SimdAlu                       0      0.00%      5.00% # Class of executed instruction
system.cpu0.op_class::SimdCmp                       0      0.00%      5.00% # Class of executed instruction
system.cpu0.op_class::SimdCvt                       0      0.00%      5.00% # Class of executed instruction
system.cpu0.op_class::SimdMisc                      0      0.00%      5.00% # Class of executed instruction
system.cpu0.op_class::SimdMult                      0      0.00%      5.00% # Class of executed instruction
system.cpu0.op_class::SimdMultAcc                   0      0.00%      5.00% # Class of executed instruction
system.cpu0.op_class::SimdShift                     0      0.00%      5.00% # Class of executed instruction
system.cpu0.op_class::SimdShiftAcc                  0      0.00%      5.00% # Class of executed instruction
system.cpu0.op_class::SimdDiv                       0      0.00%      5.00% # Class of executed instruction
system.cpu0.op_class::SimdSqrt                      0      0.00%      5.00% # Class of executed instruction
system.cpu0.op_class::SimdFloatAdd                  4     20.00%     25.00% # Class of executed instruction
system.cpu0.op_class::SimdFloatAlu                  0      0.00%     25.00% # Class of executed instruction
system.cpu0.op_class::SimdFloatCmp                  0      0.00%     25.00% # Class of executed instruction
system.cpu0.op_class::SimdFloatCvt                  0      0.00%     25.00% # Class of executed instruction
system.cpu0.op_class::SimdFloatDiv                  0      0.00%     25.00% # Class of executed instruction
system.cpu0.op_class::SimdFloatMisc                 0      0.00%     25.00% # Class of executed instruction
system.cpu0.op_class::SimdFloatMult                 4     20.00%     45.00% # Class of executed instruction
system.cpu0.op_class::SimdFloatMultAcc              0      0.00%     45.00% # Class of executed instruction
system.cpu0.op_class::SimdFloatSqrt                 0      0.00%     45.00% # Class of executed instruction
system.cpu0.op_class::SimdReduceAdd                 0      0.00%     45.00% # Class of executed instruction
system.cpu0.op_class::SimdReduceAlu                 0      0.00%     45.00% # Class of executed instruction
system.cpu0.op_class::SimdReduceCmp                 0      0.00%     45.00% # Class of executed instruction
system.cpu0.op_class::SimdFloatReduceAdd            0      0.00%     45.00% # Class of executed instruction
system.cpu0.op_class::SimdFloatReduceCmp            0      0.00%     45.00% # Class of executed instruction
system.cpu0.op_class::SimdAes                       0      0.00%     45.00% # Class of executed instruction
system.cpu0.op_class::SimdAesMix                    0      0.00%     45.00% # Class of executed instruction
system.cpu0.op_class::SimdSha1Hash                  0      0.00%     45.00% # Class of executed instruction
system.cpu0.op_class::SimdSha1Hash2                 0      0.00%     45.00% # Class of executed instruction
system.cpu0.op_class::SimdSha256Hash                0      0.00%     45.00% # Class of executed instruction
system.cpu0.op_class::SimdSha256Hash2               0      0.00%     45.00% # Class of executed instruction
system.cpu0.op_class::SimdShaSigma2                 0      0.00%     45.00% # Class of executed instruction
system.cpu0.op_class::SimdShaSigma3                 0      0.00%     45.00% # Class of executed instruction
system.cpu0.op_class::SimdPredAlu                   0      0.00%     45.00% # Class of executed instruction
system.cpu0.op_class::MemRead                       2     10.00%     55.00% # Class of executed instruction
system.cpu0.op_class::MemWrite                      0      0.00%     55.00% # Class of executed instruction
system.cpu0.op_class::FloatMemRead                  7     35.00%     90.00% # Class of executed instruction
system.cpu0.op_class::FloatMemWrite                 2     10.00%    100.00% # Class of executed instruction
system.cpu0.op_class::IprAccess                     0      0.00%    100.00% # Class of executed instruction
system.cpu0.op_class::InstPrefetch                  0      0.00%    100.00% # Class of executed instruction
system.cpu0.op_class::total                        20                       # Class of executed instruction
system.cpu0.workload.numSyscalls                    0                       # Number of system calls
system.cpu1.committedInsts                         19                       # Number of instructions committed
system.cpu1.committedOps                           20                       # Number of ops (including micro ops) committed
system.cpu1.idle_fraction                           0                       # Percentage of idle cycles
system.cpu1.l2bus.snoop_filter.hit_multi_requests            0                       # Number of requests hitting in the snoop filter with multiple (>1) holders of the requested data.
system.cpu1.l2bus.snoop_filter.hit_multi_snoops            0                       # Number of snoops hitting in the snoop filter with multiple (>1) holders of the requested data.
system.cpu1.l2bus.snoop_filter.hit_single_requests      5727883                       # Number of requests hitting in the snoop filter with a single holder of the requested data.
system.cpu1.l2bus.snoop_filter.hit_single_snoops          395                       # Number of snoops hitting in the snoop filter with a single holder of the requested data.
system.cpu1.l2bus.snoop_filter.tot_requests     11456334                       # Total number of requests made to the snoop filter.
system.cpu1.l2bus.snoop_filter.tot_snoops          395                       # Total number of snoops made to the snoop filter.
system.cpu1.mmucache.mmubus.snoop_filter.hit_multi_requests            0                       # Number of requests hitting in the snoop filter with multiple (>1) holders of the requested data.
system.cpu1.mmucache.mmubus.snoop_filter.hit_multi_snoops            0                       # Number of snoops hitting in the snoop filter with multiple (>1) holders of the requested data.
system.cpu1.mmucache.mmubus.snoop_filter.hit_single_requests            0                       # Number of requests hitting in the snoop filter with a single holder of the requested data.
system.cpu1.mmucache.mmubus.snoop_filter.hit_single_snoops            0                       # Number of snoops hitting in the snoop filter with a single holder of the requested data.
system.cpu1.mmucache.mmubus.snoop_filter.tot_requests            0                       # Total number of requests made to the snoop filter.
system.cpu1.mmucache.mmubus.snoop_filter.tot_snoops            0                       # Total number of snoops made to the snoop filter.
system.cpu1.not_idle_fraction                       1                       # Percentage of non-idle cycles
system.cpu1.numCycles                              30                       # number of cpu cycles simulated
system.cpu1.numWorkItemsCompleted                   0                       # number of work items this cpu completed
system.cpu1.numWorkItemsStarted                     0                       # number of work items this cpu started
system.cpu1.num_busy_cycles                        30                       # Number of busy cycles
system.cpu1.num_conditional_control_insts            0                       # number of instructions that are conditional controls
system.cpu1.num_fp_alu_accesses                    20                       # Number of float alu accesses
system.cpu1.num_fp_insts                           20                       # number of float instructions
system.cpu1.num_fp_register_reads                  36                       # number of times the floating registers were read
system.cpu1.num_fp_register_writes                 19                       # number of times the floating registers were written
system.cpu1.num_func_calls                          0                       # number of times a function call or return occured
system.cpu1.num_idle_cycles                         0                       # Number of idle cycles
system.cpu1.num_int_alu_accesses                    8                       # Number of integer alu accesses
system.cpu1.num_int_insts                           8                       # number of integer instructions
system.cpu1.num_int_register_reads                 24                       # number of times the integer registers were read
system.cpu1.num_int_register_writes                 0                       # number of times the integer registers were written
system.cpu1.num_load_insts                          7                       # Number of load instructions
system.cpu1.num_mem_refs                            8                       # number of memory refs
system.cpu1.num_store_insts                         1                       # Number of store instructions
system.cpu1.num_vec_alu_accesses                    0                       # Number of vector alu accesses
system.cpu1.num_vec_insts                           0                       # number of vector instructions
system.cpu1.num_vec_register_reads                  0                       # number of times the vector registers were read
system.cpu1.num_vec_register_writes                 0                       # number of times the vector registers were written
system.cpu1.op_class::No_OpClass                    0      0.00%      0.00% # Class of executed instruction
system.cpu1.op_class::IntAlu                        1      5.00%      5.00% # Class of executed instruction
system.cpu1.op_class::IntMult                       0      0.00%      5.00% # Class of executed instruction
system.cpu1.op_class::IntDiv                        0      0.00%      5.00% # Class of executed instruction
system.cpu1.op_class::FloatAdd                      0      0.00%      5.00% # Class of executed instruction
system.cpu1.op_class::FloatCmp                      0      0.00%      5.00% # Class of executed instruction
system.cpu1.op_class::FloatCvt                      0      0.00%      5.00% # Class of executed instruction
system.cpu1.op_class::FloatMult                     0      0.00%      5.00% # Class of executed instruction
system.cpu1.op_class::FloatMultAcc                  0      0.00%      5.00% # Class of executed instruction
system.cpu1.op_class::FloatDiv                      0      0.00%      5.00% # Class of executed instruction
system.cpu1.op_class::FloatMisc                     0      0.00%      5.00% # Class of executed instruction
system.cpu1.op_class::FloatSqrt                     0      0.00%      5.00% # Class of executed instruction
system.cpu1.op_class::SimdAdd                       0      0.00%      5.00% # Class of executed instruction
system.cpu1.op_class::SimdAddAcc                    0      0.00%      5.00% # Class of executed instruction
system.cpu1.op_class::SimdAlu                       0      0.00%      5.00% # Class of executed instruction
system.cpu1.op_class::SimdCmp                       0      0.00%      5.00% # Class of executed instruction
system.cpu1.op_class::SimdCvt                       0      0.00%      5.00% # Class of executed instruction
system.cpu1.op_class::SimdMisc                      0      0.00%      5.00% # Class of executed instruction
system.cpu1.op_class::SimdMult                      0      0.00%      5.00% # Class of executed instruction
system.cpu1.op_class::SimdMultAcc                   0      0.00%      5.00% # Class of executed instruction
system.cpu1.op_class::SimdShift                     0      0.00%      5.00% # Class of executed instruction
system.cpu1.op_class::SimdShiftAcc                  0      0.00%      5.00% # Class of executed instruction
system.cpu1.op_class::SimdDiv                       0      0.00%      5.00% # Class of executed instruction
system.cpu1.op_class::SimdSqrt                      0      0.00%      5.00% # Class of executed instruction
system.cpu1.op_class::SimdFloatAdd                  5     25.00%     30.00% # Class of executed instruction
system.cpu1.op_class::SimdFloatAlu                  0      0.00%     30.00% # Class of executed instruction
system.cpu1.op_class::SimdFloatCmp                  0      0.00%     30.00% # Class of executed instruction
system.cpu1.op_class::SimdFloatCvt                  0      0.00%     30.00% # Class of executed instruction
system.cpu1.op_class::SimdFloatDiv                  0      0.00%     30.00% # Class of executed instruction
system.cpu1.op_class::SimdFloatMisc                 0      0.00%     30.00% # Class of executed instruction
system.cpu1.op_class::SimdFloatMult                 6     30.00%     60.00% # Class of executed instruction
system.cpu1.op_class::SimdFloatMultAcc              0      0.00%     60.00% # Class of executed instruction
system.cpu1.op_class::SimdFloatSqrt                 0      0.00%     60.00% # Class of executed instruction
system.cpu1.op_class::SimdReduceAdd                 0      0.00%     60.00% # Class of executed instruction
system.cpu1.op_class::SimdReduceAlu                 0      0.00%     60.00% # Class of executed instruction
system.cpu1.op_class::SimdReduceCmp                 0      0.00%     60.00% # Class of executed instruction
system.cpu1.op_class::SimdFloatReduceAdd            0      0.00%     60.00% # Class of executed instruction
system.cpu1.op_class::SimdFloatReduceCmp            0      0.00%     60.00% # Class of executed instruction
system.cpu1.op_class::SimdAes                       0      0.00%     60.00% # Class of executed instruction
system.cpu1.op_class::SimdAesMix                    0      0.00%     60.00% # Class of executed instruction
system.cpu1.op_class::SimdSha1Hash                  0      0.00%     60.00% # Class of executed instruction
system.cpu1.op_class::SimdSha1Hash2                 0      0.00%     60.00% # Class of executed instruction
system.cpu1.op_class::SimdSha256Hash                0      0.00%     60.00% # Class of executed instruction
system.cpu1.op_class::SimdSha256Hash2               0      0.00%     60.00% # Class of executed instruction
system.cpu1.op_class::SimdShaSigma2                 0      0.00%     60.00% # Class of executed instruction
system.cpu1.op_class::SimdShaSigma3                 0      0.00%     60.00% # Class of executed instruction
system.cpu1.op_class::SimdPredAlu                   0      0.00%     60.00% # Class of executed instruction
system.cpu1.op_class::MemRead                       0      0.00%     60.00% # Class of executed instruction
system.cpu1.op_class::MemWrite                      0      0.00%     60.00% # Class of executed instruction
system.cpu1.op_class::FloatMemRead                  7     35.00%     95.00% # Class of executed instruction
system.cpu1.op_class::FloatMemWrite                 1      5.00%    100.00% # Class of executed instruction
system.cpu1.op_class::IprAccess                     0      0.00%    100.00% # Class of executed instruction
system.cpu1.op_class::InstPrefetch                  0      0.00%    100.00% # Class of executed instruction
system.cpu1.op_class::total                        20                       # Class of executed instruction
system.cpu1.workload.numSyscalls                    0                       # Number of system calls
system.cpu2.Branches                                1                       # Number of branches fetched
system.cpu2.committedInsts                         17                       # Number of instructions committed
system.cpu2.committedOps                           25                       # Number of ops (including micro ops) committed
system.cpu2.idle_fraction                           0                       # Percentage of idle cycles
system.cpu2.l2bus.snoop_filter.hit_multi_requests          270                       # Number of requests hitting in the snoop filter with multiple (>1) holders of the requested data.
system.cpu2.l2bus.snoop_filter.hit_multi_snoops          106                       # Number of snoops hitting in the snoop filter with multiple (>1) holders of the requested data.
system.cpu2.l2bus.snoop_filter.hit_single_requests      3981372                       # Number of requests hitting in the snoop filter with a single holder of the requested data.
system.cpu2.l2bus.snoop_filter.hit_single_snoops          395                       # Number of snoops hitting in the snoop filter with a single holder of the requested data.
system.cpu2.l2bus.snoop_filter.tot_requests      7934256                       # Total number of requests made to the snoop filter.
system.cpu2.l2bus.snoop_filter.tot_snoops          501                       # Total number of snoops made to the snoop filter.
system.cpu2.mmucache.mmubus.snoop_filter.hit_multi_requests            0                       # Number of requests hitting in the snoop filter with multiple (>1) holders of the requested data.
system.cpu2.mmucache.mmubus.snoop_filter.hit_multi_snoops            0                       # Number of snoops hitting in the snoop filter with multiple (>1) holders of the requested data.
system.cpu2.mmucache.mmubus.snoop_filter.hit_single_requests            0                       # Number of requests hitting in the snoop filter with a single holder of the requested data.
system.cpu2.mmucache.mmubus.snoop_filter.hit_single_snoops            0                       # Number of snoops hitting in the snoop filter with a single holder of the requested data.
system.cpu2.mmucache.mmubus.snoop_filter.tot_requests            0                       # Total number of requests made to the snoop filter.
system.cpu2.mmucache.mmubus.snoop_filter.tot_snoops            0                       # Total number of snoops made to the snoop filter.
system.cpu2.not_idle_fraction                       1                       # Percentage of non-idle cycles
system.cpu2.numCycles                              31                       # number of cpu cycles simulated
system.cpu2.numWorkItemsCompleted                   0                       # number of work items this cpu completed
system.cpu2.numWorkItemsStarted                     0                       # number of work items this cpu started
system.cpu2.num_busy_cycles                        31                       # Number of busy cycles
system.cpu2.num_cc_register_reads                  20                       # number of times the CC registers were read
system.cpu2.num_cc_register_writes                 12                       # number of times the CC registers were written
system.cpu2.num_conditional_control_insts            1                       # number of instructions that are conditional controls
system.cpu2.num_fp_alu_accesses                     0                       # Number of float alu accesses
system.cpu2.num_fp_insts                            0                       # number of float instructions
system.cpu2.num_fp_register_reads                   0                       # number of times the floating registers were read
system.cpu2.num_fp_register_writes                  0                       # number of times the floating registers were written
system.cpu2.num_func_calls                          0                       # number of times a function call or return occured
system.cpu2.num_idle_cycles                         0                       # Number of idle cycles
system.cpu2.num_int_alu_accesses                   25                       # Number of integer alu accesses
system.cpu2.num_int_insts                          25                       # number of integer instructions
system.cpu2.num_int_register_reads                 59                       # number of times the integer registers were read
system.cpu2.num_int_register_writes                17                       # number of times the integer registers were written
system.cpu2.num_load_insts                          2                       # Number of load instructions
system.cpu2.num_mem_refs                            9                       # number of memory refs
system.cpu2.num_store_insts                         7                       # Number of store instructions
system.cpu2.num_vec_alu_accesses                    0                       # Number of vector alu accesses
system.cpu2.num_vec_insts                           0                       # number of vector instructions
system.cpu2.num_vec_register_reads                  0                       # number of times the vector registers were read
system.cpu2.num_vec_register_writes                 0                       # number of times the vector registers were written
system.cpu2.op_class::No_OpClass                    0      0.00%      0.00% # Class of executed instruction
system.cpu2.op_class::IntAlu                       16     64.00%     64.00% # Class of executed instruction
system.cpu2.op_class::IntMult                       0      0.00%     64.00% # Class of executed instruction
system.cpu2.op_class::IntDiv                        0      0.00%     64.00% # Class of executed instruction
system.cpu2.op_class::FloatAdd                      0      0.00%     64.00% # Class of executed instruction
system.cpu2.op_class::FloatCmp                      0      0.00%     64.00% # Class of executed instruction
system.cpu2.op_class::FloatCvt                      0      0.00%     64.00% # Class of executed instruction
system.cpu2.op_class::FloatMult                     0      0.00%     64.00% # Class of executed instruction
system.cpu2.op_class::FloatMultAcc                  0      0.00%     64.00% # Class of executed instruction
system.cpu2.op_class::FloatDiv                      0      0.00%     64.00% # Class of executed instruction
system.cpu2.op_class::FloatMisc                     0      0.00%     64.00% # Class of executed instruction
system.cpu2.op_class::FloatSqrt                     0      0.00%     64.00% # Class of executed instruction
system.cpu2.op_class::SimdAdd                       0      0.00%     64.00% # Class of executed instruction
system.cpu2.op_class::SimdAddAcc                    0      0.00%     64.00% # Class of executed instruction
system.cpu2.op_class::SimdAlu                       0      0.00%     64.00% # Class of executed instruction
system.cpu2.op_class::SimdCmp                       0      0.00%     64.00% # Class of executed instruction
system.cpu2.op_class::SimdCvt                       0      0.00%     64.00% # Class of executed instruction
system.cpu2.op_class::SimdMisc                      0      0.00%     64.00% # Class of executed instruction
system.cpu2.op_class::SimdMult                      0      0.00%     64.00% # Class of executed instruction
system.cpu2.op_class::SimdMultAcc                   0      0.00%     64.00% # Class of executed instruction
system.cpu2.op_class::SimdShift                     0      0.00%     64.00% # Class of executed instruction
system.cpu2.op_class::SimdShiftAcc                  0      0.00%     64.00% # Class of executed instruction
system.cpu2.op_class::SimdDiv                       0      0.00%     64.00% # Class of executed instruction
system.cpu2.op_class::SimdSqrt                      0      0.00%     64.00% # Class of executed instruction
system.cpu2.op_class::SimdFloatAdd                  0      0.00%     64.00% # Class of executed instruction
system.cpu2.op_class::SimdFloatAlu                  0      0.00%     64.00% # Class of executed instruction
system.cpu2.op_class::SimdFloatCmp                  0      0.00%     64.00% # Class of executed instruction
system.cpu2.op_class::SimdFloatCvt                  0      0.00%     64.00% # Class of executed instruction
system.cpu2.op_class::SimdFloatDiv                  0      0.00%     64.00% # Class of executed instruction
system.cpu2.op_class::SimdFloatMisc                 0      0.00%     64.00% # Class of executed instruction
system.cpu2.op_class::SimdFloatMult                 0      0.00%     64.00% # Class of executed instruction
system.cpu2.op_class::SimdFloatMultAcc              0      0.00%     64.00% # Class of executed instruction
system.cpu2.op_class::SimdFloatSqrt                 0      0.00%     64.00% # Class of executed instruction
system.cpu2.op_class::SimdReduceAdd                 0      0.00%     64.00% # Class of executed instruction
system.cpu2.op_class::SimdReduceAlu                 0      0.00%     64.00% # Class of executed instruction
system.cpu2.op_class::SimdReduceCmp                 0      0.00%     64.00% # Class of executed instruction
system.cpu2.op_class::SimdFloatReduceAdd            0      0.00%     64.00% # Class of executed instruction
system.cpu2.op_class::SimdFloatReduceCmp            0      0.00%     64.00% # Class of executed instruction
system.cpu2.op_class::SimdAes                       0      0.00%     64.00% # Class of executed instruction
system.cpu2.op_class::SimdAesMix                    0      0.00%     64.00% # Class of executed instruction
system.cpu2.op_class::SimdSha1Hash                  0      0.00%     64.00% # Class of executed instruction
system.cpu2.op_class::SimdSha1Hash2                 0      0.00%     64.00% # Class of executed instruction
system.cpu2.op_class::SimdSha256Hash                0      0.00%     64.00% # Class of executed instruction
system.cpu2.op_class::SimdSha256Hash2               0      0.00%     64.00% # Class of executed instruction
system.cpu2.op_class::SimdShaSigma2                 0      0.00%     64.00% # Class of executed instruction
system.cpu2.op_class::SimdShaSigma3                 0      0.00%     64.00% # Class of executed instruction
system.cpu2.op_class::SimdPredAlu                   0      0.00%     64.00% # Class of executed instruction
system.cpu2.op_class::MemRead                       2      8.00%     72.00% # Class of executed instruction
system.cpu2.op_class::MemWrite                      7     28.00%    100.00% # Class of executed instruction
system.cpu2.op_class::FloatMemRead                  0      0.00%    100.00% # Class of executed instruction
system.cpu2.op_class::FloatMemWrite                 0      0.00%    100.00% # Class of executed instruction
system.cpu2.op_class::IprAccess                     0      0.00%    100.00% # Class of executed instruction
system.cpu2.op_class::InstPrefetch                  0      0.00%    100.00% # Class of executed instruction
system.cpu2.op_class::total                        25                       # Class of executed instruction
system.cpu2.workload.numSyscalls                    0                       # Number of system calls
system.cpu3.Branches                                2                       # Number of branches fetched
system.cpu3.committedInsts                         16                       # Number of instructions committed
system.cpu3.committedOps                           24                       # Number of ops (including micro ops) committed
system.cpu3.idle_fraction                           0                       # Percentage of idle cycles
system.cpu3.l2bus.snoop_filter.hit_multi_requests          459                       # Number of requests hitting in the snoop filter with multiple (>1) holders of the requested data.
system.cpu3.l2bus.snoop_filter.hit_multi_snoops            0                       # Number of snoops hitting in the snoop filter with multiple (>1) holders of the requested data.
system.cpu3.l2bus.snoop_filter.hit_single_requests       226965                       # Number of requests hitting in the snoop filter with a single holder of the requested data.
system.cpu3.l2bus.snoop_filter.hit_single_snoops          375                       # Number of snoops hitting in the snoop filter with a single holder of the requested data.
system.cpu3.l2bus.snoop_filter.tot_requests       454693                       # Total number of requests made to the snoop filter.
system.cpu3.l2bus.snoop_filter.tot_snoops          375                       # Total number of snoops made to the snoop filter.
system.cpu3.mmucache.mmubus.snoop_filter.hit_multi_requests            0                       # Number of requests hitting in the snoop filter with multiple (>1) holders of the requested data.
system.cpu3.mmucache.mmubus.snoop_filter.hit_multi_snoops            0                       # Number of snoops hitting in the snoop filter with multiple (>1) holders of the requested data.
system.cpu3.mmucache.mmubus.snoop_filter.hit_single_requests            0                       # Number of requests hitting in the snoop filter with a single holder of the requested data.
system.cpu3.mmucache.mmubus.snoop_filter.hit_single_snoops            0                       # Number of snoops hitting in the snoop filter with a single holder of the requested data.
system.cpu3.mmucache.mmubus.snoop_filter.tot_requests            0                       # Total number of requests made to the snoop filter.
system.cpu3.mmucache.mmubus.snoop_filter.tot_snoops            0                       # Total number of snoops made to the snoop filter.
system.cpu3.not_idle_fraction                       1                       # Percentage of non-idle cycles
system.cpu3.numCycles                              30                       # number of cpu cycles simulated
system.cpu3.numWorkItemsCompleted                   0                       # number of work items this cpu completed
system.cpu3.numWorkItemsStarted                     0                       # number of work items this cpu started
system.cpu3.num_busy_cycles                        30                       # Number of busy cycles
system.cpu3.num_cc_register_reads                  11                       # number of times the CC registers were read
system.cpu3.num_cc_register_writes                  7                       # number of times the CC registers were written
system.cpu3.num_conditional_control_insts            2                       # number of instructions that are conditional controls
system.cpu3.num_fp_alu_accesses                     0                       # Number of float alu accesses
system.cpu3.num_fp_insts                            0                       # number of float instructions
system.cpu3.num_fp_register_reads                   0                       # number of times the floating registers were read
system.cpu3.num_fp_register_writes                  0                       # number of times the floating registers were written
system.cpu3.num_func_calls                          0                       # number of times a function call or return occured
system.cpu3.num_idle_cycles                         0                       # Number of idle cycles
system.cpu3.num_int_alu_accesses                   24                       # Number of integer alu accesses
system.cpu3.num_int_insts                          24                       # number of integer instructions
system.cpu3.num_int_register_reads                 50                       # number of times the integer registers were read
system.cpu3.num_int_register_writes                22                       # number of times the integer registers were written
system.cpu3.num_load_insts                          2                       # Number of load instructions
system.cpu3.num_mem_refs                            3                       # number of memory refs
system.cpu3.num_store_insts                         1                       # Number of store instructions
system.cpu3.num_vec_alu_accesses                    0                       # Number of vector alu accesses
system.cpu3.num_vec_insts                           0                       # number of vector instructions
system.cpu3.num_vec_register_reads                  0                       # number of times the vector registers were read
system.cpu3.num_vec_register_writes                 0                       # number of times the vector registers were written
system.cpu3.op_class::No_OpClass                    0      0.00%      0.00% # Class of executed instruction
system.cpu3.op_class::IntAlu                       20     83.33%     83.33% # Class of executed instruction
system.cpu3.op_class::IntMult                       1      4.17%     87.50% # Class of executed instruction
system.cpu3.op_class::IntDiv                        0      0.00%     87.50% # Class of executed instruction
system.cpu3.op_class::FloatAdd                      0      0.00%     87.50% # Class of executed instruction
system.cpu3.op_class::FloatCmp                      0      0.00%     87.50% # Class of executed instruction
system.cpu3.op_class::FloatCvt                      0      0.00%     87.50% # Class of executed instruction
system.cpu3.op_class::FloatMult                     0      0.00%     87.50% # Class of executed instruction
system.cpu3.op_class::FloatMultAcc                  0      0.00%     87.50% # Class of executed instruction
system.cpu3.op_class::FloatDiv                      0      0.00%     87.50% # Class of executed instruction
system.cpu3.op_class::FloatMisc                     0      0.00%     87.50% # Class of executed instruction
system.cpu3.op_class::FloatSqrt                     0      0.00%     87.50% # Class of executed instruction
system.cpu3.op_class::SimdAdd                       0      0.00%     87.50% # Class of executed instruction
system.cpu3.op_class::SimdAddAcc                    0      0.00%     87.50% # Class of executed instruction
system.cpu3.op_class::SimdAlu                       0      0.00%     87.50% # Class of executed instruction
system.cpu3.op_class::SimdCmp                       0      0.00%     87.50% # Class of executed instruction
system.cpu3.op_class::SimdCvt                       0      0.00%     87.50% # Class of executed instruction
system.cpu3.op_class::SimdMisc                      0      0.00%     87.50% # Class of executed instruction
system.cpu3.op_class::SimdMult                      0      0.00%     87.50% # Class of executed instruction
system.cpu3.op_class::SimdMultAcc                   0      0.00%     87.50% # Class of executed instruction
system.cpu3.op_class::SimdShift                     0      0.00%     87.50% # Class of executed instruction
system.cpu3.op_class::SimdShiftAcc                  0      0.00%     87.50% # Class of executed instruction
system.cpu3.op_class::SimdDiv                       0      0.00%     87.50% # Class of executed instruction
system.cpu3.op_class::SimdSqrt                      0      0.00%     87.50% # Class of executed instruction
system.cpu3.op_class::SimdFloatAdd                  0      0.00%     87.50% # Class of executed instruction
system.cpu3.op_class::SimdFloatAlu                  0      0.00%     87.50% # Class of executed instruction
system.cpu3.op_class::SimdFloatCmp                  0      0.00%     87.50% # Class of executed instruction
system.cpu3.op_class::SimdFloatCvt                  0      0.00%     87.50% # Class of executed instruction
system.cpu3.op_class::SimdFloatDiv                  0      0.00%     87.50% # Class of executed instruction
system.cpu3.op_class::SimdFloatMisc                 0      0.00%     87.50% # Class of executed instruction
system.cpu3.op_class::SimdFloatMult                 0      0.00%     87.50% # Class of executed instruction
system.cpu3.op_class::SimdFloatMultAcc              0      0.00%     87.50% # Class of executed instruction
system.cpu3.op_class::SimdFloatSqrt                 0      0.00%     87.50% # Class of executed instruction
system.cpu3.op_class::SimdReduceAdd                 0      0.00%     87.50% # Class of executed instruction
system.cpu3.op_class::SimdReduceAlu                 0      0.00%     87.50% # Class of executed instruction
system.cpu3.op_class::SimdReduceCmp                 0      0.00%     87.50% # Class of executed instruction
system.cpu3.op_class::SimdFloatReduceAdd            0      0.00%     87.50% # Class of executed instruction
system.cpu3.op_class::SimdFloatReduceCmp            0      0.00%     87.50% # Class of executed instruction
system.cpu3.op_class::SimdAes                       0      0.00%     87.50% # Class of executed instruction
system.cpu3.op_class::SimdAesMix                    0      0.00%     87.50% # Class of executed instruction
system.cpu3.op_class::SimdSha1Hash                  0      0.00%     87.50% # Class of executed instruction
system.cpu3.op_class::SimdSha1Hash2                 0      0.00%     87.50% # Class of executed instruction
system.cpu3.op_class::SimdSha256Hash                0      0.00%     87.50% # Class of executed instruction
system.cpu3.op_class::SimdSha256Hash2               0      0.00%     87.50% # Class of executed instruction
system.cpu3.op_class::SimdShaSigma2                 0      0.00%     87.50% # Class of executed instruction
system.cpu3.op_class::SimdShaSigma3                 0      0.00%     87.50% # Class of executed instruction
system.cpu3.op_class::SimdPredAlu                   0      0.00%     87.50% # Class of executed instruction
system.cpu3.op_class::MemRead                       2      8.33%     95.83% # Class of executed instruction
system.cpu3.op_class::MemWrite                      1      4.17%    100.00% # Class of executed instruction
system.cpu3.op_class::FloatMemRead                  0      0.00%    100.00% # Class of executed instruction
system.cpu3.op_class::FloatMemWrite                 0      0.00%    100.00% # Class of executed instruction
system.cpu3.op_class::IprAccess                     0      0.00%    100.00% # Class of executed instruction
system.cpu3.op_class::InstPrefetch                  0      0.00%    100.00% # Class of executed instruction
system.cpu3.op_class::total                        24                       # Class of executed instruction
system.cpu3.workload.numSyscalls                    0                       # Number of system calls
system.l3bus.snoop_filter.hit_multi_requests            0                       # Number of requests hitting in the snoop filter with multiple (>1) holders of the requested data.
system.l3bus.snoop_filter.hit_multi_snoops            0                       # Number of snoops hitting in the snoop filter with multiple (>1) holders of the requested data.
system.l3bus.snoop_filter.hit_single_requests      5913718                       # Number of requests hitting in the snoop filter with a single holder of the requested data.
system.l3bus.snoop_filter.hit_single_snoops            0                       # Number of snoops hitting in the snoop filter with a single holder of the requested data.
system.l3bus.snoop_filter.tot_requests       11849500                       # Total number of requests made to the snoop filter.
system.l3bus.snoop_filter.tot_snoops                0                       # Total number of snoops made to the snoop filter.
system.membus.snoop_filter.hit_multi_requests            0                       # Number of requests hitting in the snoop filter with multiple (>1) holders of the requested data.
system.membus.snoop_filter.hit_multi_snoops            0                       # Number of snoops hitting in the snoop filter with multiple (>1) holders of the requested data.
system.membus.snoop_filter.hit_single_requests      4574238                       # Number of requests hitting in the snoop filter with a single holder of the requested data.
system.membus.snoop_filter.hit_single_snoops            0                       # Number of snoops hitting in the snoop filter with a single holder of the requested data.
system.membus.snoop_filter.tot_requests       9229346                       # Total number of requests made to the snoop filter.
system.membus.snoop_filter.tot_snoops               0                       # Total number of snoops made to the snoop filter.
system.switch_cpus0.cc_regfile_reads          4624270                       # number of cc regfile reads
system.switch_cpus0.cc_regfile_writes         4380510                       # number of cc regfile writes
system.switch_cpus0.committedInsts          120929775                       # Number of Instructions Simulated
system.switch_cpus0.committedOps            150829503                       # Number of Ops (including micro ops) Simulated
system.switch_cpus0.cpi                      2.124762                       # CPI: Cycles Per Instruction
system.switch_cpus0.cpi_total                2.124762                       # CPI: Total CPI of All Threads
system.switch_cpus0.fp_regfile_reads        202342949                       # number of floating regfile reads
system.switch_cpus0.fp_regfile_writes       114005004                       # number of floating regfile writes
system.switch_cpus0.idleCycles                 640711                       # Total number of cycles that the CPU has spent unscheduled due to idling
system.switch_cpus0.iew.branchMispredicts          310                       # Number of branch mispredicts detected at execute
system.switch_cpus0.iew.exec_branches         1298092                       # Number of branches executed
system.switch_cpus0.iew.exec_nop                    0                       # number of nop insts executed
system.switch_cpus0.iew.exec_rate            0.587447                       # Inst execution rate
system.switch_cpus0.iew.exec_refs            67482289                       # number of memory reference insts executed
system.switch_cpus0.iew.exec_stores           9224377                       # Number of stores executed
system.switch_cpus0.iew.exec_swp                    0                       # number of swp insts executed
system.switch_cpus0.iew.iewBlockCycles           7303                       # Number of cycles IEW is blocking
system.switch_cpus0.iew.iewDispLoadInsts     58163994                       # Number of dispatched load instructions
system.switch_cpus0.iew.iewDispNonSpecInsts            0                       # Number of dispatched non-speculative instructions
system.switch_cpus0.iew.iewDispSquashedInsts          209                       # Number of squashed instructions skipped by dispatch
system.switch_cpus0.iew.iewDispStoreInsts      9225182                       # Number of dispatched store instructions
system.switch_cpus0.iew.iewDispatchedInsts    150853570                       # Number of instructions dispatched to IQ
system.switch_cpus0.iew.iewExecLoadInsts     58257912                       # Number of load instructions executed
system.switch_cpus0.iew.iewExecSquashedInsts          854                       # Number of squashed instructions skipped in execute
system.switch_cpus0.iew.iewExecutedInsts    150942767                       # Number of executed instructions
system.switch_cpus0.iew.iewIQFullEvents          2219                       # Number of times the IQ has become full, causing a stall
system.switch_cpus0.iew.iewIdleCycles               0                       # Number of cycles IEW is idle
system.switch_cpus0.iew.iewLSQFullEvents     58030070                       # Number of times the LSQ has become full, causing a stall
system.switch_cpus0.iew.iewSquashCycles          1496                       # Number of cycles IEW is squashing
system.switch_cpus0.iew.iewUnblockCycles     58059613                       # Number of cycles IEW is unblocking
system.switch_cpus0.iew.memOrderViolationEvents         1202                       # Number of memory order violations
system.switch_cpus0.iew.predictedNotTakenIncorrect          305                       # Number of branches that were predicted not taken incorrectly
system.switch_cpus0.iew.predictedTakenIncorrect            5                       # Number of branches that were predicted taken incorrectly
system.switch_cpus0.iew.wb_consumers        167054983                       # num instructions consuming a value
system.switch_cpus0.iew.wb_count            150847435                       # cumulative count of insts written-back
system.switch_cpus0.iew.wb_fanout            0.655737                       # average fanout of values written-back
system.switch_cpus0.iew.wb_producers        109544105                       # num instructions producing a value
system.switch_cpus0.iew.wb_rate              0.587076                       # insts written-back per cycle
system.switch_cpus0.iew.wb_sent             150847657                       # cumulative count of insts sent to commit
system.switch_cpus0.int_regfile_reads       146712109                       # number of integer regfile reads
system.switch_cpus0.int_regfile_writes       26097266                       # number of integer regfile writes
system.switch_cpus0.ipc                      0.470641                       # IPC: Instructions Per Cycle
system.switch_cpus0.ipc_total                0.470641                       # IPC: Total IPC of All Threads
system.switch_cpus0.iq.FU_type_0::No_OpClass           39      0.00%      0.00% # Type of FU issued
system.switch_cpus0.iq.FU_type_0::IntAlu     25445541     16.86%     16.86% # Type of FU issued
system.switch_cpus0.iq.FU_type_0::IntMult            0      0.00%     16.86% # Type of FU issued
system.switch_cpus0.iq.FU_type_0::IntDiv            0      0.00%     16.86% # Type of FU issued
system.switch_cpus0.iq.FU_type_0::FloatAdd       547281      0.36%     17.22% # Type of FU issued
system.switch_cpus0.iq.FU_type_0::FloatCmp            0      0.00%     17.22% # Type of FU issued
system.switch_cpus0.iq.FU_type_0::FloatCvt            0      0.00%     17.22% # Type of FU issued
system.switch_cpus0.iq.FU_type_0::FloatMult            0      0.00%     17.22% # Type of FU issued
system.switch_cpus0.iq.FU_type_0::FloatMultAcc            0      0.00%     17.22% # Type of FU issued
system.switch_cpus0.iq.FU_type_0::FloatDiv            0      0.00%     17.22% # Type of FU issued
system.switch_cpus0.iq.FU_type_0::FloatMisc            0      0.00%     17.22% # Type of FU issued
system.switch_cpus0.iq.FU_type_0::FloatSqrt            0      0.00%     17.22% # Type of FU issued
system.switch_cpus0.iq.FU_type_0::SimdAdd            0      0.00%     17.22% # Type of FU issued
system.switch_cpus0.iq.FU_type_0::SimdAddAcc            0      0.00%     17.22% # Type of FU issued
system.switch_cpus0.iq.FU_type_0::SimdAlu       405382      0.27%     17.49% # Type of FU issued
system.switch_cpus0.iq.FU_type_0::SimdCmp            0      0.00%     17.49% # Type of FU issued
system.switch_cpus0.iq.FU_type_0::SimdCvt            0      0.00%     17.49% # Type of FU issued
system.switch_cpus0.iq.FU_type_0::SimdMisc       243228      0.16%     17.65% # Type of FU issued
system.switch_cpus0.iq.FU_type_0::SimdMult            0      0.00%     17.65% # Type of FU issued
system.switch_cpus0.iq.FU_type_0::SimdMultAcc            0      0.00%     17.65% # Type of FU issued
system.switch_cpus0.iq.FU_type_0::SimdShift            0      0.00%     17.65% # Type of FU issued
system.switch_cpus0.iq.FU_type_0::SimdShiftAcc            0      0.00%     17.65% # Type of FU issued
system.switch_cpus0.iq.FU_type_0::SimdDiv            0      0.00%     17.65% # Type of FU issued
system.switch_cpus0.iq.FU_type_0::SimdSqrt            0      0.00%     17.65% # Type of FU issued
system.switch_cpus0.iq.FU_type_0::SimdFloatAdd     31744393     21.03%     38.68% # Type of FU issued
system.switch_cpus0.iq.FU_type_0::SimdFloatAlu            0      0.00%     38.68% # Type of FU issued
system.switch_cpus0.iq.FU_type_0::SimdFloatCmp        40538      0.03%     38.71% # Type of FU issued
system.switch_cpus0.iq.FU_type_0::SimdFloatCvt       223244      0.15%     38.86% # Type of FU issued
system.switch_cpus0.iq.FU_type_0::SimdFloatDiv        60807      0.04%     38.90% # Type of FU issued
system.switch_cpus0.iq.FU_type_0::SimdFloatMisc            0      0.00%     38.90% # Type of FU issued
system.switch_cpus0.iq.FU_type_0::SimdFloatMult     24750578     16.40%     55.29% # Type of FU issued
system.switch_cpus0.iq.FU_type_0::SimdFloatMultAcc            0      0.00%     55.29% # Type of FU issued
system.switch_cpus0.iq.FU_type_0::SimdFloatSqrt            0      0.00%     55.29% # Type of FU issued
system.switch_cpus0.iq.FU_type_0::SimdReduceAdd            0      0.00%     55.29% # Type of FU issued
system.switch_cpus0.iq.FU_type_0::SimdReduceAlu            0      0.00%     55.29% # Type of FU issued
system.switch_cpus0.iq.FU_type_0::SimdReduceCmp            0      0.00%     55.29% # Type of FU issued
system.switch_cpus0.iq.FU_type_0::SimdFloatReduceAdd            0      0.00%     55.29% # Type of FU issued
system.switch_cpus0.iq.FU_type_0::SimdFloatReduceCmp            0      0.00%     55.29% # Type of FU issued
system.switch_cpus0.iq.FU_type_0::SimdAes            0      0.00%     55.29% # Type of FU issued
system.switch_cpus0.iq.FU_type_0::SimdAesMix            0      0.00%     55.29% # Type of FU issued
system.switch_cpus0.iq.FU_type_0::SimdSha1Hash            0      0.00%     55.29% # Type of FU issued
system.switch_cpus0.iq.FU_type_0::SimdSha1Hash2            0      0.00%     55.29% # Type of FU issued
system.switch_cpus0.iq.FU_type_0::SimdSha256Hash            0      0.00%     55.29% # Type of FU issued
system.switch_cpus0.iq.FU_type_0::SimdSha256Hash2            0      0.00%     55.29% # Type of FU issued
system.switch_cpus0.iq.FU_type_0::SimdShaSigma2            0      0.00%     55.29% # Type of FU issued
system.switch_cpus0.iq.FU_type_0::SimdShaSigma3            0      0.00%     55.29% # Type of FU issued
system.switch_cpus0.iq.FU_type_0::SimdPredAlu            0      0.00%     55.29% # Type of FU issued
system.switch_cpus0.iq.FU_type_0::MemRead     13450219      8.91%     64.20% # Type of FU issued
system.switch_cpus0.iq.FU_type_0::MemWrite      1602152      1.06%     65.27% # Type of FU issued
system.switch_cpus0.iq.FU_type_0::FloatMemRead     44807903     29.69%     94.95% # Type of FU issued
system.switch_cpus0.iq.FU_type_0::FloatMemWrite      7622316      5.05%    100.00% # Type of FU issued
system.switch_cpus0.iq.FU_type_0::IprAccess            0      0.00%    100.00% # Type of FU issued
system.switch_cpus0.iq.FU_type_0::InstPrefetch            0      0.00%    100.00% # Type of FU issued
system.switch_cpus0.iq.FU_type_0::total     150943621                       # Type of FU issued
system.switch_cpus0.iq.fp_alu_accesses      123696078                       # Number of floating point alu accesses
system.switch_cpus0.iq.fp_inst_queue_reads    245857938                       # Number of floating instruction queue reads
system.switch_cpus0.iq.fp_inst_queue_wakeup_accesses    122093249                       # Number of floating instruction queue wakeup accesses
system.switch_cpus0.iq.fp_inst_queue_writes    122115651                       # Number of floating instruction queue writes
system.switch_cpus0.iq.fu_busy_cnt            2240220                       # FU busy when requested
system.switch_cpus0.iq.fu_busy_rate          0.014841                       # FU busy rate (busy events/executed inst)
system.switch_cpus0.iq.fu_full::No_OpClass            0      0.00%      0.00% # attempts to use FU when none available
system.switch_cpus0.iq.fu_full::IntAlu          16311      0.73%      0.73% # attempts to use FU when none available
system.switch_cpus0.iq.fu_full::IntMult             0      0.00%      0.73% # attempts to use FU when none available
system.switch_cpus0.iq.fu_full::IntDiv              0      0.00%      0.73% # attempts to use FU when none available
system.switch_cpus0.iq.fu_full::FloatAdd            0      0.00%      0.73% # attempts to use FU when none available
system.switch_cpus0.iq.fu_full::FloatCmp            0      0.00%      0.73% # attempts to use FU when none available
system.switch_cpus0.iq.fu_full::FloatCvt            0      0.00%      0.73% # attempts to use FU when none available
system.switch_cpus0.iq.fu_full::FloatMult            0      0.00%      0.73% # attempts to use FU when none available
system.switch_cpus0.iq.fu_full::FloatMultAcc            0      0.00%      0.73% # attempts to use FU when none available
system.switch_cpus0.iq.fu_full::FloatDiv            0      0.00%      0.73% # attempts to use FU when none available
system.switch_cpus0.iq.fu_full::FloatMisc            0      0.00%      0.73% # attempts to use FU when none available
system.switch_cpus0.iq.fu_full::FloatSqrt            0      0.00%      0.73% # attempts to use FU when none available
system.switch_cpus0.iq.fu_full::SimdAdd             0      0.00%      0.73% # attempts to use FU when none available
system.switch_cpus0.iq.fu_full::SimdAddAcc            0      0.00%      0.73% # attempts to use FU when none available
system.switch_cpus0.iq.fu_full::SimdAlu             0      0.00%      0.73% # attempts to use FU when none available
system.switch_cpus0.iq.fu_full::SimdCmp             0      0.00%      0.73% # attempts to use FU when none available
system.switch_cpus0.iq.fu_full::SimdCvt             0      0.00%      0.73% # attempts to use FU when none available
system.switch_cpus0.iq.fu_full::SimdMisc            0      0.00%      0.73% # attempts to use FU when none available
system.switch_cpus0.iq.fu_full::SimdMult            0      0.00%      0.73% # attempts to use FU when none available
system.switch_cpus0.iq.fu_full::SimdMultAcc            0      0.00%      0.73% # attempts to use FU when none available
system.switch_cpus0.iq.fu_full::SimdShift            0      0.00%      0.73% # attempts to use FU when none available
system.switch_cpus0.iq.fu_full::SimdShiftAcc            0      0.00%      0.73% # attempts to use FU when none available
system.switch_cpus0.iq.fu_full::SimdDiv             0      0.00%      0.73% # attempts to use FU when none available
system.switch_cpus0.iq.fu_full::SimdSqrt            0      0.00%      0.73% # attempts to use FU when none available
system.switch_cpus0.iq.fu_full::SimdFloatAdd          273      0.01%      0.74% # attempts to use FU when none available
system.switch_cpus0.iq.fu_full::SimdFloatAlu            0      0.00%      0.74% # attempts to use FU when none available
system.switch_cpus0.iq.fu_full::SimdFloatCmp            0      0.00%      0.74% # attempts to use FU when none available
system.switch_cpus0.iq.fu_full::SimdFloatCvt            0      0.00%      0.74% # attempts to use FU when none available
system.switch_cpus0.iq.fu_full::SimdFloatDiv            0      0.00%      0.74% # attempts to use FU when none available
system.switch_cpus0.iq.fu_full::SimdFloatMisc            0      0.00%      0.74% # attempts to use FU when none available
system.switch_cpus0.iq.fu_full::SimdFloatMult       132558      5.92%      6.66% # attempts to use FU when none available
system.switch_cpus0.iq.fu_full::SimdFloatMultAcc            0      0.00%      6.66% # attempts to use FU when none available
system.switch_cpus0.iq.fu_full::SimdFloatSqrt            0      0.00%      6.66% # attempts to use FU when none available
system.switch_cpus0.iq.fu_full::SimdReduceAdd            0      0.00%      6.66% # attempts to use FU when none available
system.switch_cpus0.iq.fu_full::SimdReduceAlu            0      0.00%      6.66% # attempts to use FU when none available
system.switch_cpus0.iq.fu_full::SimdReduceCmp            0      0.00%      6.66% # attempts to use FU when none available
system.switch_cpus0.iq.fu_full::SimdFloatReduceAdd            0      0.00%      6.66% # attempts to use FU when none available
system.switch_cpus0.iq.fu_full::SimdFloatReduceCmp            0      0.00%      6.66% # attempts to use FU when none available
system.switch_cpus0.iq.fu_full::SimdAes             0      0.00%      6.66% # attempts to use FU when none available
system.switch_cpus0.iq.fu_full::SimdAesMix            0      0.00%      6.66% # attempts to use FU when none available
system.switch_cpus0.iq.fu_full::SimdSha1Hash            0      0.00%      6.66% # attempts to use FU when none available
system.switch_cpus0.iq.fu_full::SimdSha1Hash2            0      0.00%      6.66% # attempts to use FU when none available
system.switch_cpus0.iq.fu_full::SimdSha256Hash            0      0.00%      6.66% # attempts to use FU when none available
system.switch_cpus0.iq.fu_full::SimdSha256Hash2            0      0.00%      6.66% # attempts to use FU when none available
system.switch_cpus0.iq.fu_full::SimdShaSigma2            0      0.00%      6.66% # attempts to use FU when none available
system.switch_cpus0.iq.fu_full::SimdShaSigma3            0      0.00%      6.66% # attempts to use FU when none available
system.switch_cpus0.iq.fu_full::SimdPredAlu            0      0.00%      6.66% # attempts to use FU when none available
system.switch_cpus0.iq.fu_full::MemRead        671649     29.98%     36.64% # attempts to use FU when none available
system.switch_cpus0.iq.fu_full::MemWrite        20995      0.94%     37.58% # attempts to use FU when none available
system.switch_cpus0.iq.fu_full::FloatMemRead      1298318     57.95%     95.53% # attempts to use FU when none available
system.switch_cpus0.iq.fu_full::FloatMemWrite       100116      4.47%    100.00% # attempts to use FU when none available
system.switch_cpus0.iq.fu_full::IprAccess            0      0.00%    100.00% # attempts to use FU when none available
system.switch_cpus0.iq.fu_full::InstPrefetch            0      0.00%    100.00% # attempts to use FU when none available
system.switch_cpus0.iq.int_alu_accesses      29487724                       # Number of integer alu accesses
system.switch_cpus0.iq.int_inst_queue_reads    314575873                       # Number of integer instruction queue reads
system.switch_cpus0.iq.int_inst_queue_wakeup_accesses     28754186                       # Number of integer instruction queue wakeup accesses
system.switch_cpus0.iq.int_inst_queue_writes     28763169                       # Number of integer instruction queue writes
system.switch_cpus0.iq.iqInstsAdded         150853570                       # Number of instructions added to the IQ (excludes non-spec)
system.switch_cpus0.iq.iqInstsIssued        150943621                       # Number of instructions issued
system.switch_cpus0.iq.iqSquashedInstsExamined        24048                       # Number of squashed instructions iterated over during squash; mainly for profiling
system.switch_cpus0.iq.iqSquashedInstsIssued           40                       # Number of squashed instructions issued
system.switch_cpus0.iq.iqSquashedOperandsExamined        17452                       # Number of squashed operands that are examined and possibly removed from graph
system.switch_cpus0.iq.issued_per_cycle::samples    256306309                       # Number of insts issued each cycle
system.switch_cpus0.iq.issued_per_cycle::mean     0.588919                       # Number of insts issued each cycle
system.switch_cpus0.iq.issued_per_cycle::stdev     1.266860                       # Number of insts issued each cycle
system.switch_cpus0.iq.issued_per_cycle::underflows            0      0.00%      0.00% # Number of insts issued each cycle
system.switch_cpus0.iq.issued_per_cycle::0    190823812     74.45%     74.45% # Number of insts issued each cycle
system.switch_cpus0.iq.issued_per_cycle::1     27776564     10.84%     85.29% # Number of insts issued each cycle
system.switch_cpus0.iq.issued_per_cycle::2     14884643      5.81%     91.10% # Number of insts issued each cycle
system.switch_cpus0.iq.issued_per_cycle::3      8609173      3.36%     94.46% # Number of insts issued each cycle
system.switch_cpus0.iq.issued_per_cycle::4      7552269      2.95%     97.40% # Number of insts issued each cycle
system.switch_cpus0.iq.issued_per_cycle::5      3966802      1.55%     98.95% # Number of insts issued each cycle
system.switch_cpus0.iq.issued_per_cycle::6      1673816      0.65%     99.60% # Number of insts issued each cycle
system.switch_cpus0.iq.issued_per_cycle::7       669570      0.26%     99.86% # Number of insts issued each cycle
system.switch_cpus0.iq.issued_per_cycle::8       349660      0.14%    100.00% # Number of insts issued each cycle
system.switch_cpus0.iq.issued_per_cycle::overflows            0      0.00%    100.00% # Number of insts issued each cycle
system.switch_cpus0.iq.issued_per_cycle::min_value            0                       # Number of insts issued each cycle
system.switch_cpus0.iq.issued_per_cycle::max_value            8                       # Number of insts issued each cycle
system.switch_cpus0.iq.issued_per_cycle::total    256306309                       # Number of insts issued each cycle
system.switch_cpus0.iq.rate                  0.587450                       # Inst issue rate
system.switch_cpus0.iq.vec_alu_accesses             0                       # Number of vector alu accesses
system.switch_cpus0.iq.vec_inst_queue_reads            0                       # Number of vector instruction queue reads
system.switch_cpus0.iq.vec_inst_queue_wakeup_accesses            0                       # Number of vector instruction queue wakeup accesses
system.switch_cpus0.iq.vec_inst_queue_writes            0                       # Number of vector instruction queue writes
system.switch_cpus0.memDep0.conflictingLoads       111736                       # Number of conflicting loads.
system.switch_cpus0.memDep0.conflictingStores        15538                       # Number of conflicting stores.
system.switch_cpus0.memDep0.insertedLoads     58163994                       # Number of loads inserted to the mem dependence unit.
system.switch_cpus0.memDep0.insertedStores      9225182                       # Number of stores inserted to the mem dependence unit.
system.switch_cpus0.misc_regfile_reads       75774491                       # number of misc regfile reads
system.switch_cpus0.misc_regfile_writes             1                       # number of misc regfile writes
system.switch_cpus0.numCycles               256947020                       # number of cpu cycles simulated
system.switch_cpus0.numWorkItemsCompleted            0                       # number of work items this cpu completed
system.switch_cpus0.numWorkItemsStarted             0                       # number of work items this cpu started
system.switch_cpus0.timesIdled                 110554                       # Number of times that the entire CPU went into an idle state and unscheduled itself
system.switch_cpus1.cc_regfile_reads          5742296                       # number of cc regfile reads
system.switch_cpus1.cc_regfile_writes         2728573                       # number of cc regfile writes
system.switch_cpus1.committedInsts          155472490                       # Number of Instructions Simulated
system.switch_cpus1.committedOps            171087080                       # Number of Ops (including micro ops) Simulated
system.switch_cpus1.cpi                      1.652685                       # CPI: Cycles Per Instruction
system.switch_cpus1.cpi_total                1.652685                       # CPI: Total CPI of All Threads
system.switch_cpus1.fp_regfile_reads        283533132                       # number of floating regfile reads
system.switch_cpus1.fp_regfile_writes       128311758                       # number of floating regfile writes
system.switch_cpus1.idleCycles                   8528                       # Total number of cycles that the CPU has spent unscheduled due to idling
system.switch_cpus1.iew.branchMispredicts         3367                       # Number of branch mispredicts detected at execute
system.switch_cpus1.iew.exec_branches         1023694                       # Number of branches executed
system.switch_cpus1.iew.exec_nop                    0                       # number of nop insts executed
system.switch_cpus1.iew.exec_rate            0.786927                       # Inst execution rate
system.switch_cpus1.iew.exec_refs            98798634                       # number of memory reference insts executed
system.switch_cpus1.iew.exec_stores          19398734                       # Number of stores executed
system.switch_cpus1.iew.exec_swp                    0                       # number of swp insts executed
system.switch_cpus1.iew.iewBlockCycles       46190351                       # Number of cycles IEW is blocking
system.switch_cpus1.iew.iewDispLoadInsts     48400099                       # Number of dispatched load instructions
system.switch_cpus1.iew.iewDispNonSpecInsts            0                       # Number of dispatched non-speculative instructions
system.switch_cpus1.iew.iewDispSquashedInsts          205                       # Number of squashed instructions skipped by dispatch
system.switch_cpus1.iew.iewDispStoreInsts     19427543                       # Number of dispatched store instructions
system.switch_cpus1.iew.iewDispatchedInsts    171241666                       # Number of instructions dispatched to IQ
system.switch_cpus1.iew.iewExecLoadInsts     79399900                       # Number of load instructions executed
system.switch_cpus1.iew.iewExecSquashedInsts         1789                       # Number of squashed instructions skipped in execute
system.switch_cpus1.iew.iewExecutedInsts    202198428                       # Number of executed instructions
system.switch_cpus1.iew.iewIQFullEvents        387366                       # Number of times the IQ has become full, causing a stall
system.switch_cpus1.iew.iewIdleCycles               0                       # Number of cycles IEW is idle
system.switch_cpus1.iew.iewLSQFullEvents     54789895                       # Number of times the LSQ has become full, causing a stall
system.switch_cpus1.iew.iewSquashCycles          3978                       # Number of cycles IEW is squashing
system.switch_cpus1.iew.iewUnblockCycles     55259953                       # Number of cycles IEW is unblocking
system.switch_cpus1.iew.memOrderViolationEvents         1280                       # Number of memory order violations
system.switch_cpus1.iew.predictedNotTakenIncorrect         3331                       # Number of branches that were predicted not taken incorrectly
system.switch_cpus1.iew.predictedTakenIncorrect           36                       # Number of branches that were predicted taken incorrectly
system.switch_cpus1.iew.wb_consumers        233908934                       # num instructions consuming a value
system.switch_cpus1.iew.wb_count            171163350                       # cumulative count of insts written-back
system.switch_cpus1.iew.wb_fanout            0.535897                       # average fanout of values written-back
system.switch_cpus1.iew.wb_producers        125351076                       # num instructions producing a value
system.switch_cpus1.iew.wb_rate              0.666143                       # insts written-back per cycle
system.switch_cpus1.iew.wb_sent             171164427                       # cumulative count of insts sent to commit
system.switch_cpus1.int_regfile_reads       219886149                       # number of integer regfile reads
system.switch_cpus1.int_regfile_writes       22430334                       # number of integer regfile writes
system.switch_cpus1.ipc                      0.605076                       # IPC: Instructions Per Cycle
system.switch_cpus1.ipc_total                0.605076                       # IPC: Total IPC of All Threads
system.switch_cpus1.iq.FU_type_0::No_OpClass            0      0.00%      0.00% # Type of FU issued
system.switch_cpus1.iq.FU_type_0::IntAlu     25037019     12.38%     12.38% # Type of FU issued
system.switch_cpus1.iq.FU_type_0::IntMult            0      0.00%     12.38% # Type of FU issued
system.switch_cpus1.iq.FU_type_0::IntDiv            0      0.00%     12.38% # Type of FU issued
system.switch_cpus1.iq.FU_type_0::FloatAdd            0      0.00%     12.38% # Type of FU issued
system.switch_cpus1.iq.FU_type_0::FloatCmp            0      0.00%     12.38% # Type of FU issued
system.switch_cpus1.iq.FU_type_0::FloatCvt            0      0.00%     12.38% # Type of FU issued
system.switch_cpus1.iq.FU_type_0::FloatMult            0      0.00%     12.38% # Type of FU issued
system.switch_cpus1.iq.FU_type_0::FloatMultAcc            0      0.00%     12.38% # Type of FU issued
system.switch_cpus1.iq.FU_type_0::FloatDiv            0      0.00%     12.38% # Type of FU issued
system.switch_cpus1.iq.FU_type_0::FloatMisc            0      0.00%     12.38% # Type of FU issued
system.switch_cpus1.iq.FU_type_0::FloatSqrt            0      0.00%     12.38% # Type of FU issued
system.switch_cpus1.iq.FU_type_0::SimdAdd            0      0.00%     12.38% # Type of FU issued
system.switch_cpus1.iq.FU_type_0::SimdAddAcc            0      0.00%     12.38% # Type of FU issued
system.switch_cpus1.iq.FU_type_0::SimdAlu        18639      0.01%     12.39% # Type of FU issued
system.switch_cpus1.iq.FU_type_0::SimdCmp            0      0.00%     12.39% # Type of FU issued
system.switch_cpus1.iq.FU_type_0::SimdCvt            0      0.00%     12.39% # Type of FU issued
system.switch_cpus1.iq.FU_type_0::SimdMisc            0      0.00%     12.39% # Type of FU issued
system.switch_cpus1.iq.FU_type_0::SimdMult            0      0.00%     12.39% # Type of FU issued
system.switch_cpus1.iq.FU_type_0::SimdMultAcc            0      0.00%     12.39% # Type of FU issued
system.switch_cpus1.iq.FU_type_0::SimdShift            0      0.00%     12.39% # Type of FU issued
system.switch_cpus1.iq.FU_type_0::SimdShiftAcc            0      0.00%     12.39% # Type of FU issued
system.switch_cpus1.iq.FU_type_0::SimdDiv            0      0.00%     12.39% # Type of FU issued
system.switch_cpus1.iq.FU_type_0::SimdSqrt            0      0.00%     12.39% # Type of FU issued
system.switch_cpus1.iq.FU_type_0::SimdFloatAdd     48174675     23.83%     36.22% # Type of FU issued
system.switch_cpus1.iq.FU_type_0::SimdFloatAlu            0      0.00%     36.22% # Type of FU issued
system.switch_cpus1.iq.FU_type_0::SimdFloatCmp            0      0.00%     36.22% # Type of FU issued
system.switch_cpus1.iq.FU_type_0::SimdFloatCvt            0      0.00%     36.22% # Type of FU issued
system.switch_cpus1.iq.FU_type_0::SimdFloatDiv       932349      0.46%     36.68% # Type of FU issued
system.switch_cpus1.iq.FU_type_0::SimdFloatMisc            0      0.00%     36.68% # Type of FU issued
system.switch_cpus1.iq.FU_type_0::SimdFloatMult     29237291     14.46%     51.14% # Type of FU issued
system.switch_cpus1.iq.FU_type_0::SimdFloatMultAcc            0      0.00%     51.14% # Type of FU issued
system.switch_cpus1.iq.FU_type_0::SimdFloatSqrt            0      0.00%     51.14% # Type of FU issued
system.switch_cpus1.iq.FU_type_0::SimdReduceAdd            0      0.00%     51.14% # Type of FU issued
system.switch_cpus1.iq.FU_type_0::SimdReduceAlu            0      0.00%     51.14% # Type of FU issued
system.switch_cpus1.iq.FU_type_0::SimdReduceCmp            0      0.00%     51.14% # Type of FU issued
system.switch_cpus1.iq.FU_type_0::SimdFloatReduceAdd            0      0.00%     51.14% # Type of FU issued
system.switch_cpus1.iq.FU_type_0::SimdFloatReduceCmp            0      0.00%     51.14% # Type of FU issued
system.switch_cpus1.iq.FU_type_0::SimdAes            0      0.00%     51.14% # Type of FU issued
system.switch_cpus1.iq.FU_type_0::SimdAesMix            0      0.00%     51.14% # Type of FU issued
system.switch_cpus1.iq.FU_type_0::SimdSha1Hash            0      0.00%     51.14% # Type of FU issued
system.switch_cpus1.iq.FU_type_0::SimdSha1Hash2            0      0.00%     51.14% # Type of FU issued
system.switch_cpus1.iq.FU_type_0::SimdSha256Hash            0      0.00%     51.14% # Type of FU issued
system.switch_cpus1.iq.FU_type_0::SimdSha256Hash2            0      0.00%     51.14% # Type of FU issued
system.switch_cpus1.iq.FU_type_0::SimdShaSigma2            0      0.00%     51.14% # Type of FU issued
system.switch_cpus1.iq.FU_type_0::SimdShaSigma3            0      0.00%     51.14% # Type of FU issued
system.switch_cpus1.iq.FU_type_0::SimdPredAlu            0      0.00%     51.14% # Type of FU issued
[...]
system.switch_cpus3.commit.numCommittedDist::0    110535801     49.46%     49.46% # Number of insts commited each cycle
system.switch_cpus3.commit.numCommittedDist::1     43627595     19.52%     68.98% # Number of insts commited each cycle
system.switch_cpus3.commit.numCommittedDist::2      9766580      4.37%     73.35% # Number of insts commited each cycle
system.switch_cpus3.commit.numCommittedDist::3     24809461     11.10%     84.45% # Number of insts commited each cycle
system.switch_cpus3.commit.numCommittedDist::4      8335768      3.73%     88.18% # Number of insts commited each cycle
system.switch_cpus3.commit.numCommittedDist::5      4520522      2.02%     90.20% # Number of insts commited each cycle
system.switch_cpus3.commit.numCommittedDist::6      2187713      0.98%     91.18% # Number of insts commited each cycle
system.switch_cpus3.commit.numCommittedDist::7      1748242      0.78%     91.96% # Number of insts commited each cycle
system.switch_cpus3.commit.numCommittedDist::8     17970226      8.04%    100.00% # Number of insts commited each cycle
system.switch_cpus3.commit.numCommittedDist::overflows            0      0.00%    100.00% # Number of insts commited each cycle
system.switch_cpus3.commit.numCommittedDist::min_value            0                       # Number of insts commited each cycle
system.switch_cpus3.commit.numCommittedDist::max_value            8                       # Number of insts commited each cycle
system.switch_cpus3.commit.numCommittedDist::total    223501908                       # Number of insts commited each cycle
system.switch_cpus3.commit.instsCommitted    250000002                       # Number of instructions committed
system.switch_cpus3.commit.opsCommitted     362660600                       # Number of ops (including micro ops) committed
system.switch_cpus3.commit.memRefs           52938163                       # Number of memory references committed
system.switch_cpus3.commit.loads             36975535                       # Number of loads committed
system.switch_cpus3.commit.amos                     0                       # Number of atomic instructions committed
system.switch_cpus3.commit.membars                  0                       # Number of memory barriers committed
system.switch_cpus3.commit.branches          29655698                       # Number of branches committed
system.switch_cpus3.commit.vector                   0                       # Number of committed Vector instructions.
system.switch_cpus3.commit.floating           1283736                       # Number of committed floating point instructions.
system.switch_cpus3.commit.integer          362659128                       # Number of committed integer instructions.
system.switch_cpus3.commit.functionCalls        63870                       # Number of function calls committed.
system.switch_cpus3.commit.committedInstType_0::No_OpClass          752      0.00%      0.00% # Class of committed instruction
system.switch_cpus3.commit.committedInstType_0::IntAlu    300745823     82.93%     82.93% # Class of committed instruction
system.switch_cpus3.commit.committedInstType_0::IntMult      8975862      2.48%     85.40% # Class of committed instruction
system.switch_cpus3.commit.committedInstType_0::IntDiv            0      0.00%     85.40% # Class of committed instruction
system.switch_cpus3.commit.committedInstType_0::FloatAdd            0      0.00%     85.40% # Class of committed instruction
system.switch_cpus3.commit.committedInstType_0::FloatCmp            0      0.00%     85.40% # Class of committed instruction
system.switch_cpus3.commit.committedInstType_0::FloatCvt            0      0.00%     85.40% # Class of committed instruction
system.switch_cpus3.commit.committedInstType_0::FloatMult            0      0.00%     85.40% # Class of committed instruction
system.switch_cpus3.commit.committedInstType_0::FloatMultAcc            0      0.00%     85.40% # Class of committed instruction
system.switch_cpus3.commit.committedInstType_0::FloatDiv            0      0.00%     85.40% # Class of committed instruction
system.switch_cpus3.commit.committedInstType_0::FloatMisc            0      0.00%     85.40% # Class of committed instruction
system.switch_cpus3.commit.committedInstType_0::FloatSqrt            0      0.00%     85.40% # Class of committed instruction
system.switch_cpus3.commit.committedInstType_0::SimdAdd            0      0.00%     85.40% # Class of committed instruction
system.switch_cpus3.commit.committedInstType_0::SimdAddAcc            0      0.00%     85.40% # Class of committed instruction
system.switch_cpus3.commit.committedInstType_0::SimdAlu            0      0.00%     85.40% # Class of committed instruction
system.switch_cpus3.commit.committedInstType_0::SimdCmp            0      0.00%     85.40% # Class of committed instruction
system.switch_cpus3.commit.committedInstType_0::SimdCvt            0      0.00%     85.40% # Class of committed instruction
system.switch_cpus3.commit.committedInstType_0::SimdMisc            0      0.00%     85.40% # Class of committed instruction
system.switch_cpus3.commit.committedInstType_0::SimdMult            0      0.00%     85.40% # Class of committed instruction
system.switch_cpus3.commit.committedInstType_0::SimdMultAcc            0      0.00%     85.40% # Class of committed instruction
system.switch_cpus3.commit.committedInstType_0::SimdShift            0      0.00%     85.40% # Class of committed instruction
system.switch_cpus3.commit.committedInstType_0::SimdShiftAcc            0      0.00%     85.40% # Class of committed instruction
system.switch_cpus3.commit.committedInstType_0::SimdDiv            0      0.00%     85.40% # Class of committed instruction
system.switch_cpus3.commit.committedInstType_0::SimdSqrt            0      0.00%     85.40% # Class of committed instruction
system.switch_cpus3.commit.committedInstType_0::SimdFloatAdd            0      0.00%     85.40% # Class of committed instruction
system.switch_cpus3.commit.committedInstType_0::SimdFloatAlu            0      0.00%     85.40% # Class of committed instruction
system.switch_cpus3.commit.committedInstType_0::SimdFloatCmp            0      0.00%     85.40% # Class of committed instruction
system.switch_cpus3.commit.committedInstType_0::SimdFloatCvt            0      0.00%     85.40% # Class of committed instruction
system.switch_cpus3.commit.committedInstType_0::SimdFloatDiv            0      0.00%     85.40% # Class of committed instruction
system.switch_cpus3.commit.committedInstType_0::SimdFloatMisc            0      0.00%     85.40% # Class of committed instruction
system.switch_cpus3.commit.committedInstType_0::SimdFloatMult            0      0.00%     85.40% # Class of committed instruction
system.switch_cpus3.commit.committedInstType_0::SimdFloatMultAcc            0      0.00%     85.40% # Class of committed instruction
system.switch_cpus3.commit.committedInstType_0::SimdFloatSqrt            0      0.00%     85.40% # Class of committed instruction
system.switch_cpus3.commit.committedInstType_0::SimdReduceAdd            0      0.00%     85.40% # Class of committed instruction
system.switch_cpus3.commit.committedInstType_0::SimdReduceAlu            0      0.00%     85.40% # Class of committed instruction
system.switch_cpus3.commit.committedInstType_0::SimdReduceCmp            0      0.00%     85.40% # Class of committed instruction
system.switch_cpus3.commit.committedInstType_0::SimdFloatReduceAdd            0      0.00%     85.40% # Class of committed instruction
system.switch_cpus3.commit.committedInstType_0::SimdFloatReduceCmp            0      0.00%     85.40% # Class of committed instruction
system.switch_cpus3.commit.committedInstType_0::SimdAes            0      0.00%     85.40% # Class of committed instruction
system.switch_cpus3.commit.committedInstType_0::SimdAesMix            0      0.00%     85.40% # Class of committed instruction
system.switch_cpus3.commit.committedInstType_0::SimdSha1Hash            0      0.00%     85.40% # Class of committed instruction
system.switch_cpus3.commit.committedInstType_0::SimdSha1Hash2            0      0.00%     85.40% # Class of committed instruction
system.switch_cpus3.commit.committedInstType_0::SimdSha256Hash            0      0.00%     85.40% # Class of committed instruction
system.switch_cpus3.commit.committedInstType_0::SimdSha256Hash2            0      0.00%     85.40% # Class of committed instruction
system.switch_cpus3.commit.committedInstType_0::SimdShaSigma2            0      0.00%     85.40% # Class of committed instruction
system.switch_cpus3.commit.committedInstType_0::SimdShaSigma3            0      0.00%     85.40% # Class of committed instruction
system.switch_cpus3.commit.committedInstType_0::SimdPredAlu            0      0.00%     85.40% # Class of committed instruction
system.switch_cpus3.commit.committedInstType_0::MemRead     36333667     10.02%     95.42% # Class of committed instruction
system.switch_cpus3.commit.committedInstType_0::MemWrite     15320760      4.22%     99.65% # Class of committed instruction
system.switch_cpus3.commit.committedInstType_0::FloatMemRead       641868      0.18%     99.82% # Class of committed instruction
system.switch_cpus3.commit.committedInstType_0::FloatMemWrite       641868      0.18%    100.00% # Class of committed instruction
system.switch_cpus3.commit.committedInstType_0::IprAccess            0      0.00%    100.00% # Class of committed instruction
system.switch_cpus3.commit.committedInstType_0::InstPrefetch            0      0.00%    100.00% # Class of committed instruction
system.switch_cpus3.commit.committedInstType_0::total    362660600                       # Class of committed instruction
system.switch_cpus3.commit.commitEligibleSamples     17970226                       # number cycles where commit BW limit reached
system.switch_cpus3.decode.idleCycles        18843928                       # Number of cycles decode is idle
system.switch_cpus3.decode.blockedCycles    142044975                       # Number of cycles decode is blocked
system.switch_cpus3.decode.runCycles         62268012                       # Number of cycles decode is running
system.switch_cpus3.decode.unblockCycles     30380619                       # Number of cycles decode is unblocking
system.switch_cpus3.decode.squashCycles       3309371                       # Number of cycles decode is squashing
system.switch_cpus3.decode.branchResolved     37095861                       # Number of times decode resolved a  branch
system.switch_cpus3.decode.branchMispred         1056                       # Number of times decode detected a branch misprediction
system.switch_cpus3.decode.decodedInsts     669851765                       # Number of instructions handled by decode
system.switch_cpus3.decode.squashedInsts         2530                       # Number of squashed instructions handled by decode
system.switch_cpus3.dtb.rdAccesses           59187084                       # TLB accesses on read requests
system.switch_cpus3.dtb.wrAccesses           26336059                       # TLB accesses on write requests
system.switch_cpus3.dtb.rdMisses                37774                       # TLB misses on read requests
system.switch_cpus3.dtb.wrMisses                 1735                       # TLB misses on write requests
system.switch_cpus3.dtb.walker.power_state.pwrStateResidencyTicks::UNDEFINED 13804615963602                       # Cumulative time (in ticks) in various power states
system.switch_cpus3.fetch.icacheStallCycles      3002212                       # Number of cycles fetch is stalled on an Icache miss
system.switch_cpus3.fetch.insts             511024554                       # Number of instructions fetch has processed
system.switch_cpus3.fetch.branches           59622053                       # Number of branches that fetch encountered
system.switch_cpus3.fetch.predictedBranches     41205455                       # Number of branches that fetch has predicted taken
system.switch_cpus3.fetch.cycles            250534073                       # Number of cycles fetch has run and was not squashing or blocked
system.switch_cpus3.fetch.squashCycles        6620812                       # Number of cycles fetch has spent squashing
system.switch_cpus3.fetch.miscStallCycles           29                       # Number of cycles fetch has spent waiting on interrupts,or bad addresses, or out of MSHRs
system.switch_cpus3.fetch.pendingTrapStallCycles          187                       # Number of stall cycles due to pending traps
system.switch_cpus3.fetch.cacheLines         68315138                       # Number of cache lines fetched
system.switch_cpus3.fetch.icacheSquashes          207                       # Number of outstanding Icache misses that were squashed
system.switch_cpus3.fetch.nisnDist::samples    256846907                       # Number of instructions fetched each cycle (Total)
system.switch_cpus3.fetch.nisnDist::mean     2.932576                       # Number of instructions fetched each cycle (Total)
system.switch_cpus3.fetch.nisnDist::stdev     3.330270                       # Number of instructions fetched each cycle (Total)
system.switch_cpus3.fetch.nisnDist::underflows            0      0.00%      0.00% # Number of instructions fetched each cycle (Total)
system.switch_cpus3.fetch.nisnDist::0       119734681     46.62%     46.62% # Number of instructions fetched each cycle (Total)
system.switch_cpus3.fetch.nisnDist::1        12466407      4.85%     51.47% # Number of instructions fetched each cycle (Total)
system.switch_cpus3.fetch.nisnDist::2        14895983      5.80%     57.27% # Number of instructions fetched each cycle (Total)
system.switch_cpus3.fetch.nisnDist::3        11158411      4.34%     61.61% # Number of instructions fetched each cycle (Total)
system.switch_cpus3.fetch.nisnDist::4        11811841      4.60%     66.21% # Number of instructions fetched each cycle (Total)
system.switch_cpus3.fetch.nisnDist::5        14223927      5.54%     71.75% # Number of instructions fetched each cycle (Total)
system.switch_cpus3.fetch.nisnDist::6         8355271      3.25%     75.00% # Number of instructions fetched each cycle (Total)
system.switch_cpus3.fetch.nisnDist::7         4612172      1.80%     76.80% # Number of instructions fetched each cycle (Total)
system.switch_cpus3.fetch.nisnDist::8        59588214     23.20%    100.00% # Number of instructions fetched each cycle (Total)
system.switch_cpus3.fetch.nisnDist::overflows            0      0.00%    100.00% # Number of instructions fetched each cycle (Total)
system.switch_cpus3.fetch.nisnDist::min_value            0                       # Number of instructions fetched each cycle (Total)
system.switch_cpus3.fetch.nisnDist::max_value            8                       # Number of instructions fetched each cycle (Total)
system.switch_cpus3.fetch.nisnDist::total    256846907                       # Number of instructions fetched each cycle (Total)
system.switch_cpus3.fetch.branchRate         0.232040                       # Number of branch fetches per cycle
system.switch_cpus3.fetch.rate               1.988832                       # Number of inst fetches per cycle
system.switch_cpus3.itb.rdAccesses                  0                       # TLB accesses on read requests
system.switch_cpus3.itb.wrAccesses           68315177                       # TLB accesses on write requests
system.switch_cpus3.itb.rdMisses                    0                       # TLB misses on read requests
system.switch_cpus3.itb.wrMisses                   60                       # TLB misses on write requests
system.switch_cpus3.itb.walker.power_state.pwrStateResidencyTicks::UNDEFINED 13804615963602                       # Cumulative time (in ticks) in various power states
system.switch_cpus3.lsq0.forwLoads            7067150                       # Number of loads that had data forwarded from stores
system.switch_cpus3.lsq0.squashedLoads       32441775                       # Number of loads squashed
system.switch_cpus3.lsq0.ignoredResponses         6955                       # Number of memory responses ignored because the instruction is squashed
system.switch_cpus3.lsq0.memOrderViolation        19321                       # Number of memory ordering violations
system.switch_cpus3.lsq0.squashedStores      21348436                       # Number of stores squashed
system.switch_cpus3.lsq0.rescheduledLoads            9                       # Number of loads that were rescheduled
system.switch_cpus3.lsq0.blockedByCache          3479                       # Number of times an access to memory failed due to the cache being blocked
system.switch_cpus3.power_state.pwrStateResidencyTicks::OFF  85563367983                       # Cumulative time (in ticks) in various power states
system.switch_cpus3.rename.squashCycles       3309371                       # Number of cycles rename is squashing
system.switch_cpus3.rename.idleCycles        30905314                       # Number of cycles rename is idle
system.switch_cpus3.rename.blockCycles       67849871                       # Number of cycles rename is blocking
system.switch_cpus3.rename.serializeStallCycles            0                       # count of cycles rename stalledfor serializing inst
system.switch_cpus3.rename.runCycles         80045079                       # Number of cycles rename is running
system.switch_cpus3.rename.unblockCycles     74737270                       # Number of cycles rename is unblocking
system.switch_cpus3.rename.renamedInsts     651167986                       # Number of instructions processed by rename
system.switch_cpus3.rename.ROBFullEvents       105725                       # Number of times rename has blocked due to ROB full
system.switch_cpus3.rename.IQFullEvents      40988122                       # Number of times rename has blocked due to IQ full
system.switch_cpus3.rename.LQFullEvents        152736                       # Number of times rename has blocked due to LQ full
system.switch_cpus3.rename.SQFullEvents      28304510                       # Number of times rename has blocked due to SQ full
system.switch_cpus3.rename.renamedOperands    934610744                       # Number of destination operands rename has renamed
system.switch_cpus3.rename.lookups         1670484193                       # Number of register rename lookups that rename has made
system.switch_cpus3.rename.intLookups      1132370198                       # Number of integer rename lookups
system.switch_cpus3.rename.fpLookups          6539474                       # Number of floating rename lookups
system.switch_cpus3.rename.committedMaps    534420157                       # Number of HB maps that are committed
system.switch_cpus3.rename.undoneMaps       400190477                       # Number of HB maps that are undone due to squashing
system.switch_cpus3.rename.serializing              0                       # count of serializing insts renamed
system.switch_cpus3.rename.tempSerializing            0                       # count of temporary serializing insts renamed
system.switch_cpus3.rename.skidInsts        124071451                       # count of insts added to the skid buffer
system.switch_cpus3.rob.reads               819403781                       # The number of ROB reads
system.switch_cpus3.rob.writes             1267919505                       # The number of ROB writes
system.switch_cpus3.thread0.numInsts        250000002                       # Number of Instructions committed
system.switch_cpus3.thread0.numOps          362660600                       # Number of Ops committed
system.switch_cpus3.thread0.numMemRefs              0                       # Number of Memory References
system.voltage_domain.voltage                       1                       # Voltage in Volts

---------- End Simulation Statistics   ----------
