Command line:
./runscript_pride.sh mix12 RFM2.BR1.4C 4 2017 --rh_defense --rh_mitigation=RFM --rh_rfm_per_trefi=2 --rh_rfm_blast_radius=1 --rh_rfm_maxacts_per_trefi=79
Global frequency set at 1000000000000 ticks per second
RFM details - rfm_act_threshold: 39, blast_radius: 1, delay_per_rfm: 175000 ps. sample_rate: 0.025000
RH Defense config: RFM, Bus Delay: 0, rfms_per_trefi: 2, rfm_act_threshold: 39, blast_radius: 1,rfm_delay_per_act: 45000 ps.
DRAM config: RowsPerBank: 65536, BanksPerRank: 32, RanksPerChannel: 1
warn: Sockets disabled, not accepting gdb connections
warn: CoherentXBar system.cpu0.mmucache.mmubus has no snooping ports attached!
warn: CoherentXBar system.cpu1.mmucache.mmubus has no snooping ports attached!
warn: CoherentXBar system.cpu2.mmucache.mmubus has no snooping ports attached!
warn: CoherentXBar system.cpu3.mmucache.mmubus has no snooping ports attached!
warn: Checkpoints for file descriptors currently do not work.
warn: Checkpoints for file descriptors currently do not work.
warn: Checkpoints for file descriptors currently do not work.
warn: Checkpoints for file descriptors currently do not work.
gem5 Simulator System.  http://gem5.org
gem5 is copyrighted software; use the --copyright option for details.

gem5 version 20.1.0.5
gem5 compiled Jul 12 2024 12:42:38
gem5 started Jul 31 2024 16:23:00
gem5 executing on a07dda8b130c, pid 241248
command line: /home/user/PrIDE/performance/gem5/build/X86/gem5.opt --outdir=/home/user/PrIDE/performance/gem5/stats/pride_multiprogram_16GBmem_250Mn.SPEC2017.C4/RFM2.BR1.4C/mix12 /home/user/PrIDE/performance/gem5/configs/example/se_rq_spec_config_multicore.py --redirects /lib64=/home/utils/gcc-6.2.0/lib64 --benchmark=mix12 --benchmark_stdout=/home/user/PrIDE/performance/gem5/stats/pride_multiprogram_16GBmem_250Mn.SPEC2017.C4/RFM2.BR1.4C/mix12/mix12.out --benchmark_stderr=/home/user/PrIDE/performance/gem5/stats/pride_multiprogram_16GBmem_250Mn.SPEC2017.C4/RFM2.BR1.4C/mix12/mix12.err --spec-version=2017 --rh_defense --rh_mitigation=RFM --rh_rfm_per_trefi=2 --rh_rfm_blast_radius=1 --rh_rfm_maxacts_per_trefi=79 --num-cpus=4 --mem-size=16GB --mem-type=DDR5_2400_32x4 --mem-ranks=1 --mem-channels=1 --checkpoint-dir=/home/user/PrIDE/performance/gem5/cpts-DDR5/multiprogram_16GBmem_25Bn.SPEC2017.C4/mix12-1-ref-x86 --checkpoint-restore=25000000000 --at-instruction --cpu-type DerivO3CPU --caches --l2cache --l1d_size=32kB --l1i_size=32kB --l2_size=256kB --l3_size=4MB --l1d_assoc=8 --l1i_assoc=8 --l2_assoc=16 --l3_assoc=16 --cpu-clock=3GHz --sys-clock=3GHz --maxinsts=250000000 --prog-interval=300Hz

info: Standard input is not a terminal, disabling listeners.
Benchmark- 0   roms
Selected benchmark
--> roms
CMD: ['/opt/spec2017/benchspec/CPU/554.roms_r/run/run_base_refrate_gem5_se-m64.0000/roms_r_base.gem5_se-m64']
CWD: /opt/spec2017/benchspec/CPU/554.roms_r/run/run_base_refrate_gem5_se-m64.0000/
Process stdout file: /home/user/PrIDE/performance/gem5/stats/pride_multiprogram_16GBmem_250Mn.SPEC2017.C4/RFM2.BR1.4C/mix12/mix12.out_0
Process stderr file: /home/user/PrIDE/performance/gem5/stats/pride_multiprogram_16GBmem_250Mn.SPEC2017.C4/RFM2.BR1.4C/mix12/mix12.err_0
Benchmark- 1   mcf
Selected benchmark
--> mcf
CMD: ['/opt/spec2017/benchspec/CPU/505.mcf_r/run/run_base_refrate_gem5_se-m64.0000/mcf_r_base.gem5_se-m64', '/opt/spec2017/benchspec/CPU/505.mcf_r/run/run_base_refrate_gem5_se-m64.0000/inp.in']
CWD: /opt/spec2017/benchspec/CPU/505.mcf_r/run/run_base_refrate_gem5_se-m64.0000/
Process stdout file: /home/user/PrIDE/performance/gem5/stats/pride_multiprogram_16GBmem_250Mn.SPEC2017.C4/RFM2.BR1.4C/mix12/mix12.out_1
Process stderr file: /home/user/PrIDE/performance/gem5/stats/pride_multiprogram_16GBmem_250Mn.SPEC2017.C4/RFM2.BR1.4C/mix12/mix12.err_1
Benchmark- 2   imagick
Selected benchmark
--> imagick
CMD: ['/opt/spec2017/benchspec/CPU/538.imagick_r/run/run_base_refrate_gem5_se-m64.0000/imagick_r_base.gem5_se-m64', '-limit', 'disk', '0', '/opt/spec2017/benchspec/CPU/538.imagick_r/run/run_base_refrate_gem5_se-m64.0000/refrate_input.tga', '-edge', '41', '-resample', '181%', '-emboss', '31', '-colorspace', 'YUV', '-mean-shift', '19x19+15%', '-resize', '30%', '/opt/spec2017/benchspec/CPU/538.imagick_r/run/run_base_refrate_gem5_se-m64.0000/refrate_output.tga']
CWD: /opt/spec2017/benchspec/CPU/538.imagick_r/run/run_base_refrate_gem5_se-m64.0000/
Process stdout file: /home/user/PrIDE/performance/gem5/stats/pride_multiprogram_16GBmem_250Mn.SPEC2017.C4/RFM2.BR1.4C/mix12/mix12.out_2
Process stderr file: /home/user/PrIDE/performance/gem5/stats/pride_multiprogram_16GBmem_250Mn.SPEC2017.C4/RFM2.BR1.4C/mix12/mix12.err_2
Benchmark- 3   blender
Selected benchmark
--> blender
CMD: ['/opt/spec2017/benchspec/CPU/526.blender_r/run/run_base_refrate_gem5_se-m64.0000/blender_r_base.gem5_se-m64', '/opt/spec2017/benchspec/CPU/526.blender_r/run/run_base_refrate_gem5_se-m64.0000/sh3_no_char.blend', '--render-output', 'sh3_no_char_', '--threads', '1', '-b', '-F', 'RAWTGA', '-s', '849', '-e', '849', '-a']
CWD: /opt/spec2017/benchspec/CPU/526.blender_r/run/run_base_refrate_gem5_se-m64.0000/
Process stdout file: /home/user/PrIDE/performance/gem5/stats/pride_multiprogram_16GBmem_250Mn.SPEC2017.C4/RFM2.BR1.4C/mix12/mix12.out_3
Process stderr file: /home/user/PrIDE/performance/gem5/stats/pride_multiprogram_16GBmem_250Mn.SPEC2017.C4/RFM2.BR1.4C/mix12/mix12.err_3
Workload-0: 
['/opt/spec2017/benchspec/CPU/554.roms_r/run/run_base_refrate_gem5_se-m64.0000/roms_r_base.gem5_se-m64']
Workload-1: 
['/opt/spec2017/benchspec/CPU/505.mcf_r/run/run_base_refrate_gem5_se-m64.0000/mcf_r_base.gem5_se-m64', '/opt/spec2017/benchspec/CPU/505.mcf_r/run/run_base_refrate_gem5_se-m64.0000/inp.in']
Workload-2: 
['/opt/spec2017/benchspec/CPU/538.imagick_r/run/run_base_refrate_gem5_se-m64.0000/imagick_r_base.gem5_se-m64', '-limit', 'disk', '0', '/opt/spec2017/benchspec/CPU/538.imagick_r/run/run_base_refrate_gem5_se-m64.0000/refrate_input.tga', '-edge', '41', '-resample', '181%', '-emboss', '31', '-colorspace', 'YUV', '-mean-shift', '19x19+15%', '-resize', '30%', '/opt/spec2017/benchspec/CPU/538.imagick_r/run/run_base_refrate_gem5_se-m64.0000/refrate_output.tga']
Workload-3: 
['/opt/spec2017/benchspec/CPU/526.blender_r/run/run_base_refrate_gem5_se-m64.0000/blender_r_base.gem5_se-m64', '/opt/spec2017/benchspec/CPU/526.blender_r/run/run_base_refrate_gem5_se-m64.0000/sh3_no_char.blend', '--render-output', 'sh3_no_char_', '--threads', '1', '-b', '-F', 'RAWTGA', '-s', '849', '-e', '849', '-a']
defense_enable:  True  detector:  MG  mitigation:  RFM  threshold:  800
mg_entries:  1700
rfm_maxacts_per_trefi:  79 rfm_per_trefi:  2 rfm_blast_radius:  1
Switch at curTick count:10000
warn: membus.master is deprecated. `master` is now called `mem_side_ports`
warn: No dot file generated. Please install pydot to generate the dot file and pdf.
info: Entering event queue @ 15651257118624.  Starting simulation...
info: Entering event queue @ 15651257128624.  Starting simulation...
warn: PowerState: Already in the requested power state, request ignored
Switched CPUS @ tick 15651257128624
switching cpus
**** REAL SIMULATION ****
info: Entering event queue @ 15651257129280.  Starting simulation...
15654590451957: Event_285: system.switch_cpus3 progress event, total committed:37373533, progress insts committed: 37373533, IPC: 03.73362
15654590451957: Event_284: system.switch_cpus2 progress event, total committed:51563764, progress insts committed: 51563764, IPC: 05.15122
15654590451957: Event_283: system.switch_cpus1 progress event, total committed:10890320, progress insts committed: 10890320, IPC: 01.08794
15654590451957: Event_282: system.switch_cpus0 progress event, total committed:8884129, progress insts committed: 8884129, IPC: 0.887524
warn: MOVNTDQ: Ignoring non-temporal hint, modeling as cacheable!
15657923785290: Event_282: system.switch_cpus0 progress event, total committed:18050224, progress insts committed: 9166095, IPC: 0.915693
15657923785290: Event_283: system.switch_cpus1 progress event, total committed:22441975, progress insts committed: 11551655, IPC: 01.15401
15657923785290: Event_284: system.switch_cpus2 progress event, total committed:97921879, progress insts committed: 46358115, IPC: 04.63118
15657923785290: Event_285: system.switch_cpus3 progress event, total committed:75379209, progress insts committed: 38005676, IPC: 03.79677
15661257118623: Event_285: system.switch_cpus3 progress event, total committed:113185961, progress insts committed: 37806752, IPC: 03.77689
15661257118623: Event_284: system.switch_cpus2 progress event, total committed:122212352, progress insts committed: 24290473, IPC: 02.42662
15661257118623: Event_283: system.switch_cpus1 progress event, total committed:33731470, progress insts committed: 11289495, IPC: 01.12782
15661257118623: Event_282: system.switch_cpus0 progress event, total committed:26754736, progress insts committed: 8704512, IPC: 0.869581
15664590451956: Event_282: system.switch_cpus0 progress event, total committed:36640238, progress insts committed: 9885502, IPC: 0.987562
15664590451956: Event_283: system.switch_cpus1 progress event, total committed:43389626, progress insts committed: 9658156, IPC: 00.96485
15664590451956: Event_284: system.switch_cpus2 progress event, total committed:175152849, progress insts committed: 52940497, IPC: 05.28876
15664590451956: Event_285: system.switch_cpus3 progress event, total committed:148952712, progress insts committed: 35766751, IPC: 003.5731
15667923785289: Event_285: system.switch_cpus3 progress event, total committed:184192097, progress insts committed: 35239385, IPC: 03.52041
15667923785289: Event_284: system.switch_cpus2 progress event, total committed:228040624, progress insts committed: 52887775, IPC: 05.28349
15667923785289: Event_283: system.switch_cpus1 progress event, total committed:53200486, progress insts committed: 9810860, IPC: 0.980105
15667923785289: Event_282: system.switch_cpus0 progress event, total committed:45911233, progress insts committed: 9270995, IPC: 0.926172
15671257118622: Event_282: system.switch_cpus0 progress event, total committed:56682944, progress insts committed: 10771711, IPC: 01.07609
15671257118622: Event_283: system.switch_cpus1 progress event, total committed:63406954, progress insts committed: 10206468, IPC: 01.01963
15671257118622: Event_284: system.switch_cpus2 progress event, total committed:281039119, progress insts committed: 52998495, IPC: 05.29455
15671257118622: Event_285: system.switch_cpus3 progress event, total committed:220374510, progress insts committed: 36182413, IPC: 03.61462
15674590451955: Event_285: system.switch_cpus3 progress event, total committed:258651755, progress insts committed: 38277245, IPC: 003.8239
15674590451955: Event_284: system.switch_cpus2 progress event, total committed:334178410, progress insts committed: 53139291, IPC: 05.30862
15674590451955: Event_283: system.switch_cpus1 progress event, total committed:74558033, progress insts committed: 11151079, IPC: 01.11399
15674590451955: Event_282: system.switch_cpus0 progress event, total committed:80653389, progress insts committed: 23970445, IPC: 02.39465
15677923785288: Event_282: system.switch_cpus0 progress event, total committed:105086305, progress insts committed: 24432916, IPC: 02.44085
15677923785288: Event_283: system.switch_cpus1 progress event, total committed:86584995, progress insts committed: 12026962, IPC: 01.20149
15677923785288: Event_284: system.switch_cpus2 progress event, total committed:387311674, progress insts committed: 53133264, IPC: 05.30801
15677923785288: Event_285: system.switch_cpus3 progress event, total committed:297020027, progress insts committed: 38368272, IPC: 03.83299
Exiting @ tick 15680166963174 because a thread reached the max instruction count
