Command line:
./runscript_pride.sh mcf RFM1.BR1.4C 4 2017 --rh_defense --rh_mitigation=RFM --rh_rfm_per_trefi=1 --rh_rfm_blast_radius=1 --rh_rfm_maxacts_per_trefi=79
Global frequency set at 1000000000000 ticks per second
RFM details - rfm_act_threshold: 79, blast_radius: 1, delay_per_rfm: 175000 ps. sample_rate: 0.012500
RH Defense config: RFM, Bus Delay: 0, rfms_per_trefi: 1, rfm_act_threshold: 79, blast_radius: 1,rfm_delay_per_act: 45000 ps.
DRAM config: RowsPerBank: 65536, BanksPerRank: 32, RanksPerChannel: 1
warn: Sockets disabled, not accepting gdb connections
warn: CoherentXBar system.cpu0.mmucache.mmubus has no snooping ports attached!
warn: CoherentXBar system.cpu1.mmucache.mmubus has no snooping ports attached!
warn: CoherentXBar system.cpu2.mmucache.mmubus has no snooping ports attached!
warn: CoherentXBar system.cpu3.mmucache.mmubus has no snooping ports attached!
warn: Checkpoints for file descriptors currently do not work.
warn: Checkpoints for file descriptors currently do not work.
warn: Checkpoints for file descriptors currently do not work.
warn: Checkpoints for file descriptors currently do not work.
gem5 Simulator System.  http://gem5.org
gem5 is copyrighted software; use the --copyright option for details.

gem5 version 20.1.0.5
gem5 compiled Jul 12 2024 12:42:38
gem5 started Jul 31 2024 15:37:59
gem5 executing on a07dda8b130c, pid 238619
command line: /home/user/PrIDE/performance/gem5/build/X86/gem5.opt --outdir=/home/user/PrIDE/performance/gem5/stats/pride_multiprogram_16GBmem_250Mn.SPEC2017.C4/RFM1.BR1.4C/mcf /home/user/PrIDE/performance/gem5/configs/example/se_rq_spec_config_multicore.py --redirects /lib64=/home/utils/gcc-6.2.0/lib64 --benchmark=mcf --benchmark_stdout=/home/user/PrIDE/performance/gem5/stats/pride_multiprogram_16GBmem_250Mn.SPEC2017.C4/RFM1.BR1.4C/mcf/mcf.out --benchmark_stderr=/home/user/PrIDE/performance/gem5/stats/pride_multiprogram_16GBmem_250Mn.SPEC2017.C4/RFM1.BR1.4C/mcf/mcf.err --spec-version=2017 --rh_defense --rh_mitigation=RFM --rh_rfm_per_trefi=1 --rh_rfm_blast_radius=1 --rh_rfm_maxacts_per_trefi=79 --num-cpus=4 --mem-size=16GB --mem-type=DDR5_2400_32x4 --mem-ranks=1 --mem-channels=1 --checkpoint-dir=/home/user/PrIDE/performance/gem5/cpts-DDR5/multiprogram_16GBmem_25Bn.SPEC2017.C4/mcf-1-ref-x86 --checkpoint-restore=25000000000 --at-instruction --cpu-type DerivO3CPU --caches --l2cache --l1d_size=32kB --l1i_size=32kB --l2_size=256kB --l3_size=4MB --l1d_assoc=8 --l1i_assoc=8 --l2_assoc=16 --l3_assoc=16 --cpu-clock=3GHz --sys-clock=3GHz --maxinsts=250000000 --prog-interval=300Hz

info: Standard input is not a terminal, disabling listeners.
Benchmark- 0   mcf
Selected benchmark
--> mcf
CMD: ['/opt/spec2017/benchspec/CPU/505.mcf_r/run/run_base_refrate_gem5_se-m64.0000/mcf_r_base.gem5_se-m64', '/opt/spec2017/benchspec/CPU/505.mcf_r/run/run_base_refrate_gem5_se-m64.0000/inp.in']
CWD: /opt/spec2017/benchspec/CPU/505.mcf_r/run/run_base_refrate_gem5_se-m64.0000/
Process stdout file: /home/user/PrIDE/performance/gem5/stats/pride_multiprogram_16GBmem_250Mn.SPEC2017.C4/RFM1.BR1.4C/mcf/mcf.out_0
Process stderr file: /home/user/PrIDE/performance/gem5/stats/pride_multiprogram_16GBmem_250Mn.SPEC2017.C4/RFM1.BR1.4C/mcf/mcf.err_0
Benchmark- 1   mcf
Selected benchmark
--> mcf
CMD: ['/opt/spec2017/benchspec/CPU/505.mcf_r/run/run_base_refrate_gem5_se-m64.0000/mcf_r_base.gem5_se-m64', '/opt/spec2017/benchspec/CPU/505.mcf_r/run/run_base_refrate_gem5_se-m64.0000/inp.in']
CWD: /opt/spec2017/benchspec/CPU/505.mcf_r/run/run_base_refrate_gem5_se-m64.0000/
Process stdout file: /home/user/PrIDE/performance/gem5/stats/pride_multiprogram_16GBmem_250Mn.SPEC2017.C4/RFM1.BR1.4C/mcf/mcf.out_1
Process stderr file: /home/user/PrIDE/performance/gem5/stats/pride_multiprogram_16GBmem_250Mn.SPEC2017.C4/RFM1.BR1.4C/mcf/mcf.err_1
Benchmark- 2   mcf
Selected benchmark
--> mcf
CMD: ['/opt/spec2017/benchspec/CPU/505.mcf_r/run/run_base_refrate_gem5_se-m64.0000/mcf_r_base.gem5_se-m64', '/opt/spec2017/benchspec/CPU/505.mcf_r/run/run_base_refrate_gem5_se-m64.0000/inp.in']
CWD: /opt/spec2017/benchspec/CPU/505.mcf_r/run/run_base_refrate_gem5_se-m64.0000/
Process stdout file: /home/user/PrIDE/performance/gem5/stats/pride_multiprogram_16GBmem_250Mn.SPEC2017.C4/RFM1.BR1.4C/mcf/mcf.out_2
Process stderr file: /home/user/PrIDE/performance/gem5/stats/pride_multiprogram_16GBmem_250Mn.SPEC2017.C4/RFM1.BR1.4C/mcf/mcf.err_2
Benchmark- 3   mcf
Selected benchmark
--> mcf
CMD: ['/opt/spec2017/benchspec/CPU/505.mcf_r/run/run_base_refrate_gem5_se-m64.0000/mcf_r_base.gem5_se-m64', '/opt/spec2017/benchspec/CPU/505.mcf_r/run/run_base_refrate_gem5_se-m64.0000/inp.in']
CWD: /opt/spec2017/benchspec/CPU/505.mcf_r/run/run_base_refrate_gem5_se-m64.0000/
Process stdout file: /home/user/PrIDE/performance/gem5/stats/pride_multiprogram_16GBmem_250Mn.SPEC2017.C4/RFM1.BR1.4C/mcf/mcf.out_3
Process stderr file: /home/user/PrIDE/performance/gem5/stats/pride_multiprogram_16GBmem_250Mn.SPEC2017.C4/RFM1.BR1.4C/mcf/mcf.err_3
Workload-0: 
['/opt/spec2017/benchspec/CPU/505.mcf_r/run/run_base_refrate_gem5_se-m64.0000/mcf_r_base.gem5_se-m64', '/opt/spec2017/benchspec/CPU/505.mcf_r/run/run_base_refrate_gem5_se-m64.0000/inp.in']
Workload-1: 
['/opt/spec2017/benchspec/CPU/505.mcf_r/run/run_base_refrate_gem5_se-m64.0000/mcf_r_base.gem5_se-m64', '/opt/spec2017/benchspec/CPU/505.mcf_r/run/run_base_refrate_gem5_se-m64.0000/inp.in']
Workload-2: 
['/opt/spec2017/benchspec/CPU/505.mcf_r/run/run_base_refrate_gem5_se-m64.0000/mcf_r_base.gem5_se-m64', '/opt/spec2017/benchspec/CPU/505.mcf_r/run/run_base_refrate_gem5_se-m64.0000/inp.in']
Workload-3: 
['/opt/spec2017/benchspec/CPU/505.mcf_r/run/run_base_refrate_gem5_se-m64.0000/mcf_r_base.gem5_se-m64', '/opt/spec2017/benchspec/CPU/505.mcf_r/run/run_base_refrate_gem5_se-m64.0000/inp.in']
defense_enable:  True  detector:  MG  mitigation:  RFM  threshold:  800
mg_entries:  1700
rfm_maxacts_per_trefi:  79 rfm_per_trefi:  1 rfm_blast_radius:  1
Switch at curTick count:10000
warn: membus.master is deprecated. `master` is now called `mem_side_ports`
warn: No dot file generated. Please install pydot to generate the dot file and pdf.
info: Entering event queue @ 16815150905778.  Starting simulation...
warn: PowerState: Already in the requested power state, request ignored
Switched CPUS @ tick 16815150915778
switching cpus
**** REAL SIMULATION ****
info: Entering event queue @ 16815150915778.  Starting simulation...
16818484239111: Event_285: system.switch_cpus3 progress event, total committed:9391296, progress insts committed: 9391296, IPC: 00.93819
16818484239111: Event_284: system.switch_cpus2 progress event, total committed:9422734, progress insts committed: 9422734, IPC: 0.941331
16818484239111: Event_283: system.switch_cpus1 progress event, total committed:9404177, progress insts committed: 9404177, IPC: 0.939477
16818484239111: Event_282: system.switch_cpus0 progress event, total committed:9409007, progress insts committed: 9409007, IPC: 00.93996
16821817572444: Event_282: system.switch_cpus0 progress event, total committed:19452113, progress insts committed: 10043106, IPC: 01.00331
16821817572444: Event_283: system.switch_cpus1 progress event, total committed:19450483, progress insts committed: 10046306, IPC: 01.00363
16821817572444: Event_284: system.switch_cpus2 progress event, total committed:19515286, progress insts committed: 10092552, IPC: 01.00825
16821817572444: Event_285: system.switch_cpus3 progress event, total committed:19416639, progress insts committed: 10025343, IPC: 01.00153
16825150905777: Event_285: system.switch_cpus3 progress event, total committed:29531879, progress insts committed: 10115240, IPC: 01.01051
16825150905777: Event_284: system.switch_cpus2 progress event, total committed:29777231, progress insts committed: 10261945, IPC: 01.02517
16825150905777: Event_283: system.switch_cpus1 progress event, total committed:29551375, progress insts committed: 10100892, IPC: 01.00908
16825150905777: Event_282: system.switch_cpus0 progress event, total committed:29569690, progress insts committed: 10117577, IPC: 01.01075
16828484239110: Event_282: system.switch_cpus0 progress event, total committed:39835898, progress insts committed: 10266208, IPC: 01.02559
16828484239110: Event_283: system.switch_cpus1 progress event, total committed:39746189, progress insts committed: 10194814, IPC: 01.01846
16828484239110: Event_284: system.switch_cpus2 progress event, total committed:40469700, progress insts committed: 10692469, IPC: 01.06818
16828484239110: Event_285: system.switch_cpus3 progress event, total committed:39750390, progress insts committed: 10218511, IPC: 01.02083
16831817572443: Event_285: system.switch_cpus3 progress event, total committed:50467406, progress insts committed: 10717016, IPC: 01.07063
16831817572443: Event_284: system.switch_cpus2 progress event, total committed:51336783, progress insts committed: 10867083, IPC: 01.08562
16831817572443: Event_283: system.switch_cpus1 progress event, total committed:50424047, progress insts committed: 10677858, IPC: 01.06672
16831817572443: Event_282: system.switch_cpus0 progress event, total committed:50592483, progress insts committed: 10756585, IPC: 01.07458
16835150905776: Event_282: system.switch_cpus0 progress event, total committed:61345627, progress insts committed: 10753144, IPC: 01.07424
16835150905776: Event_283: system.switch_cpus1 progress event, total committed:60814989, progress insts committed: 10390942, IPC: 01.03806
16835150905776: Event_284: system.switch_cpus2 progress event, total committed:62221480, progress insts committed: 10884697, IPC: 01.08738
16835150905776: Event_285: system.switch_cpus3 progress event, total committed:60923036, progress insts committed: 10455630, IPC: 01.04452
16838484239109: Event_285: system.switch_cpus3 progress event, total committed:71522175, progress insts committed: 10599139, IPC: 01.05885
16838484239109: Event_284: system.switch_cpus2 progress event, total committed:73023016, progress insts committed: 10801536, IPC: 01.07907
16838484239109: Event_283: system.switch_cpus1 progress event, total committed:71364058, progress insts committed: 10549069, IPC: 01.05385
16838484239109: Event_282: system.switch_cpus0 progress event, total committed:71797330, progress insts committed: 10451703, IPC: 01.04413
16841817572442: Event_282: system.switch_cpus0 progress event, total committed:83087175, progress insts committed: 11289845, IPC: 01.12786
16841817572442: Event_283: system.switch_cpus1 progress event, total committed:81847359, progress insts committed: 10483301, IPC: 01.04728
16841817572442: Event_284: system.switch_cpus2 progress event, total committed:83498387, progress insts committed: 10475371, IPC: 01.04649
16841817572442: Event_285: system.switch_cpus3 progress event, total committed:81914397, progress insts committed: 10392222, IPC: 01.03818
16845150905775: Event_285: system.switch_cpus3 progress event, total committed:92314469, progress insts committed: 10400072, IPC: 01.03897
16845150905775: Event_284: system.switch_cpus2 progress event, total committed:93863429, progress insts committed: 10365042, IPC: 01.03547
16845150905775: Event_283: system.switch_cpus1 progress event, total committed:92117193, progress insts committed: 10269834, IPC: 01.02596
16845150905775: Event_282: system.switch_cpus0 progress event, total committed:93838077, progress insts committed: 10750902, IPC: 01.07402
16848484239108: Event_282: system.switch_cpus0 progress event, total committed:104173430, progress insts committed: 10335353, IPC: 001.0325
16848484239108: Event_283: system.switch_cpus1 progress event, total committed:102503394, progress insts committed: 10386201, IPC: 01.03758
16848484239108: Event_284: system.switch_cpus2 progress event, total committed:104199592, progress insts committed: 10336163, IPC: 01.03258
16848484239108: Event_285: system.switch_cpus3 progress event, total committed:103866684, progress insts committed: 11552215, IPC: 01.15407
16851817572441: Event_285: system.switch_cpus3 progress event, total committed:114427241, progress insts committed: 10560557, IPC: 0001.055
16851817572441: Event_284: system.switch_cpus2 progress event, total committed:114482503, progress insts committed: 10282911, IPC: 01.02726
16851817572441: Event_283: system.switch_cpus1 progress event, total committed:112715653, progress insts committed: 10212259, IPC: 001.0202
16851817572441: Event_282: system.switch_cpus0 progress event, total committed:114451355, progress insts committed: 10277925, IPC: 01.02676
16855150905774: Event_282: system.switch_cpus0 progress event, total committed:124705808, progress insts committed: 10254453, IPC: 01.02442
16855150905774: Event_283: system.switch_cpus1 progress event, total committed:123055633, progress insts committed: 10339980, IPC: 01.03296
16855150905774: Event_284: system.switch_cpus2 progress event, total committed:124742477, progress insts committed: 10259974, IPC: 01.02497
16855150905774: Event_285: system.switch_cpus3 progress event, total committed:124695979, progress insts committed: 10268738, IPC: 01.02585
16858484239107: Event_285: system.switch_cpus3 progress event, total committed:130028878, progress insts committed: 5332899, IPC: 0.532757
16858484239107: Event_284: system.switch_cpus2 progress event, total committed:130040506, progress insts committed: 5298029, IPC: 0.529273
16858484239107: Event_283: system.switch_cpus1 progress event, total committed:129943245, progress insts committed: 6887612, IPC: 0.688072
16858484239107: Event_282: system.switch_cpus0 progress event, total committed:130030416, progress insts committed: 5324608, IPC: 0.531928
16861817572440: Event_282: system.switch_cpus0 progress event, total committed:134198837, progress insts committed: 4168421, IPC: 0.416425
16861817572440: Event_283: system.switch_cpus1 progress event, total committed:132241511, progress insts committed: 2298266, IPC: 0.229597
16861817572440: Event_284: system.switch_cpus2 progress event, total committed:134277145, progress insts committed: 4236639, IPC: 00.42324
16861817572440: Event_285: system.switch_cpus3 progress event, total committed:134194528, progress insts committed: 4165650, IPC: 0.416148
16865150905773: Event_285: system.switch_cpus3 progress event, total committed:144992196, progress insts committed: 10797668, IPC: 01.07869
16865150905773: Event_284: system.switch_cpus2 progress event, total committed:146174944, progress insts committed: 11897799, IPC: 01.18859
16865150905773: Event_283: system.switch_cpus1 progress event, total committed:143116957, progress insts committed: 10875446, IPC: 01.08646
16865150905773: Event_282: system.switch_cpus0 progress event, total committed:144991436, progress insts committed: 10792599, IPC: 01.07818
16868484239106: Event_282: system.switch_cpus0 progress event, total committed:156083285, progress insts committed: 11091849, IPC: 01.10808
16868484239106: Event_283: system.switch_cpus1 progress event, total committed:154118601, progress insts committed: 11001644, IPC: 01.09906
16868484239106: Event_284: system.switch_cpus2 progress event, total committed:157967165, progress insts committed: 11792221, IPC: 01.17804
16868484239106: Event_285: system.switch_cpus3 progress event, total committed:156086452, progress insts committed: 11094256, IPC: 01.10832
16871817572439: Event_285: system.switch_cpus3 progress event, total committed:166898652, progress insts committed: 10812200, IPC: 01.08014
16871817572439: Event_284: system.switch_cpus2 progress event, total committed:168595279, progress insts committed: 10628114, IPC: 01.06175
16871817572439: Event_283: system.switch_cpus1 progress event, total committed:165303938, progress insts committed: 11185337, IPC: 01.11742
16871817572439: Event_282: system.switch_cpus0 progress event, total committed:166850876, progress insts committed: 10767591, IPC: 01.07568
16875150905772: Event_282: system.switch_cpus0 progress event, total committed:177966523, progress insts committed: 11115647, IPC: 01.11045
16875150905772: Event_283: system.switch_cpus1 progress event, total committed:176539683, progress insts committed: 11235745, IPC: 01.12245
16875150905772: Event_284: system.switch_cpus2 progress event, total committed:179937066, progress insts committed: 11341787, IPC: 01.13304
16875150905772: Event_285: system.switch_cpus3 progress event, total committed:177970244, progress insts committed: 11071592, IPC: 01.10605
16878484239105: Event_285: system.switch_cpus3 progress event, total committed:189274677, progress insts committed: 11304433, IPC: 01.12931
16878484239105: Event_284: system.switch_cpus2 progress event, total committed:190994911, progress insts committed: 11057845, IPC: 01.10468
16878484239105: Event_283: system.switch_cpus1 progress event, total committed:188302897, progress insts committed: 11763214, IPC: 01.17515
16878484239105: Event_282: system.switch_cpus0 progress event, total committed:189188119, progress insts committed: 11221596, IPC: 01.12104
16881817572438: Event_282: system.switch_cpus0 progress event, total committed:199781870, progress insts committed: 10593751, IPC: 01.05832
16881817572438: Event_283: system.switch_cpus1 progress event, total committed:199713173, progress insts committed: 11410276, IPC: 01.13989
16881817572438: Event_284: system.switch_cpus2 progress event, total committed:201749347, progress insts committed: 10754436, IPC: 01.07437
16881817572438: Event_285: system.switch_cpus3 progress event, total committed:199954012, progress insts committed: 10679335, IPC: 01.06687
16885150905771: Event_285: system.switch_cpus3 progress event, total committed:211722687, progress insts committed: 11768675, IPC: 01.17569
16885150905771: Event_284: system.switch_cpus2 progress event, total committed:213199693, progress insts committed: 11450346, IPC: 01.14389
16885150905771: Event_283: system.switch_cpus1 progress event, total committed:211131862, progress insts committed: 11418689, IPC: 01.14073
16885150905771: Event_282: system.switch_cpus0 progress event, total committed:211514458, progress insts committed: 11732588, IPC: 01.17209
16888484239104: Event_282: system.switch_cpus0 progress event, total committed:222357199, progress insts committed: 10842741, IPC: 01.08319
16888484239104: Event_283: system.switch_cpus1 progress event, total committed:221962615, progress insts committed: 10830753, IPC: 01.08199
16888484239104: Event_284: system.switch_cpus2 progress event, total committed:223931364, progress insts committed: 10731671, IPC: 01.07209
16888484239104: Event_285: system.switch_cpus3 progress event, total committed:223596599, progress insts committed: 11873912, IPC: 001.1862
16891817572437: Event_285: system.switch_cpus3 progress event, total committed:235129664, progress insts committed: 11533065, IPC: 01.15215
16891817572437: Event_284: system.switch_cpus2 progress event, total committed:235468382, progress insts committed: 11537018, IPC: 01.15255
16891817572437: Event_283: system.switch_cpus1 progress event, total committed:233479586, progress insts committed: 11516971, IPC: 01.15055
16891817572437: Event_282: system.switch_cpus0 progress event, total committed:233588633, progress insts committed: 11231434, IPC: 01.12202
16895150905770: Event_282: system.switch_cpus0 progress event, total committed:245442087, progress insts committed: 11853454, IPC: 01.18416
16895150905770: Event_283: system.switch_cpus1 progress event, total committed:244364650, progress insts committed: 10885064, IPC: 01.08742
16895150905770: Event_284: system.switch_cpus2 progress event, total committed:246315426, progress insts committed: 10847044, IPC: 01.08362
16895150905770: Event_285: system.switch_cpus3 progress event, total committed:245954543, progress insts committed: 10824879, IPC: 01.08141
16898484239103: Event_285: system.switch_cpus3 progress event, total committed:257356206, progress insts committed: 11401663, IPC: 01.13903
16898484239103: Event_284: system.switch_cpus2 progress event, total committed:257408938, progress insts committed: 11093512, IPC: 01.10824
16898484239103: Event_283: system.switch_cpus1 progress event, total committed:255436548, progress insts committed: 11071898, IPC: 01.10608
16898484239103: Event_282: system.switch_cpus0 progress event, total committed:257318490, progress insts committed: 11876403, IPC: 01.18645
16901817572436: Event_282: system.switch_cpus0 progress event, total committed:268396478, progress insts committed: 11077988, IPC: 01.10669
16901817572436: Event_283: system.switch_cpus1 progress event, total committed:267301912, progress insts committed: 11865364, IPC: 01.18535
16901817572436: Event_284: system.switch_cpus2 progress event, total committed:268944301, progress insts committed: 11535363, IPC: 01.15238
16901817572436: Event_285: system.switch_cpus3 progress event, total committed:268492078, progress insts committed: 11135872, IPC: 01.11247
16905150905769: Event_285: system.switch_cpus3 progress event, total committed:279316469, progress insts committed: 10824391, IPC: 01.08136
16905150905769: Event_284: system.switch_cpus2 progress event, total committed:279785083, progress insts committed: 10840782, IPC: 01.08299
16905150905769: Event_283: system.switch_cpus1 progress event, total committed:278426179, progress insts committed: 11124267, IPC: 01.11131
16905150905769: Event_282: system.switch_cpus0 progress event, total committed:279310908, progress insts committed: 10914430, IPC: 01.09035
16908484239102: Event_282: system.switch_cpus0 progress event, total committed:291064252, progress insts committed: 11753344, IPC: 01.17416
16908484239102: Event_283: system.switch_cpus1 progress event, total committed:290129196, progress insts committed: 11703017, IPC: 01.16913
16908484239102: Event_284: system.switch_cpus2 progress event, total committed:291178302, progress insts committed: 11393219, IPC: 01.13818
16908484239102: Event_285: system.switch_cpus3 progress event, total committed:291072841, progress insts committed: 11756372, IPC: 01.17446
16911817572435: Event_285: system.switch_cpus3 progress event, total committed:302292127, progress insts committed: 11219286, IPC: 01.12081
16911817572435: Event_284: system.switch_cpus2 progress event, total committed:303018007, progress insts committed: 11839705, IPC: 01.18279
16911817572435: Event_283: system.switch_cpus1 progress event, total committed:301546783, progress insts committed: 11417587, IPC: 01.14062
16911817572435: Event_282: system.switch_cpus0 progress event, total committed:302210959, progress insts committed: 11146707, IPC: 01.11356
16915150905768: Event_282: system.switch_cpus0 progress event, total committed:313204391, progress insts committed: 10993432, IPC: 01.09824
16915150905768: Event_283: system.switch_cpus1 progress event, total committed:312956207, progress insts committed: 11409424, IPC: 001.1398
16915150905768: Event_284: system.switch_cpus2 progress event, total committed:314878595, progress insts committed: 11860588, IPC: 01.18487
16915150905768: Event_285: system.switch_cpus3 progress event, total committed:313362258, progress insts committed: 11070131, IPC: 01.10591
16918484239101: Event_285: system.switch_cpus3 progress event, total committed:324868420, progress insts committed: 11506162, IPC: 01.14947
16918484239101: Event_284: system.switch_cpus2 progress event, total committed:326356035, progress insts committed: 11477440, IPC: 001.1466
16918484239101: Event_283: system.switch_cpus1 progress event, total committed:324483542, progress insts committed: 11527335, IPC: 01.15158
16918484239101: Event_282: system.switch_cpus0 progress event, total committed:324804675, progress insts committed: 11600284, IPC: 01.15887
16921817572434: Event_282: system.switch_cpus0 progress event, total committed:336443573, progress insts committed: 11638898, IPC: 01.16273
16921817572434: Event_283: system.switch_cpus1 progress event, total committed:335505082, progress insts committed: 11021540, IPC: 01.10105
16921817572434: Event_284: system.switch_cpus2 progress event, total committed:337511699, progress insts committed: 11155664, IPC: 01.11445
16921817572434: Event_285: system.switch_cpus3 progress event, total committed:336730774, progress insts committed: 11862354, IPC: 01.18505
16925150905767: Event_285: system.switch_cpus3 progress event, total committed:348648991, progress insts committed: 11918217, IPC: 01.19063
16925150905767: Event_284: system.switch_cpus2 progress event, total committed:348811762, progress insts committed: 11300063, IPC: 01.12888
16925150905767: Event_283: system.switch_cpus1 progress event, total committed:346770246, progress insts committed: 11265164, IPC: 01.12539
16925150905767: Event_282: system.switch_cpus0 progress event, total committed:348141840, progress insts committed: 11698267, IPC: 01.16866
16928484239100: Event_282: system.switch_cpus0 progress event, total committed:359759973, progress insts committed: 11618133, IPC: 01.16065
16928484239100: Event_283: system.switch_cpus1 progress event, total committed:358653328, progress insts committed: 11883082, IPC: 01.18712
16928484239100: Event_284: system.switch_cpus2 progress event, total committed:360655028, progress insts committed: 11843266, IPC: 01.18314
16928484239100: Event_285: system.switch_cpus3 progress event, total committed:360129657, progress insts committed: 11480666, IPC: 01.14692
16931817572433: Event_285: system.switch_cpus3 progress event, total committed:370607483, progress insts committed: 10477826, IPC: 01.04673
16931817572433: Event_284: system.switch_cpus2 progress event, total committed:371637123, progress insts committed: 10982095, IPC: 01.09711
16931817572433: Event_283: system.switch_cpus1 progress event, total committed:369593792, progress insts committed: 10940464, IPC: 01.09295
16931817572433: Event_282: system.switch_cpus0 progress event, total committed:370581105, progress insts committed: 10821132, IPC: 01.08103
16935150905766: Event_282: system.switch_cpus0 progress event, total committed:382347389, progress insts committed: 11766284, IPC: 01.17545
16935150905766: Event_283: system.switch_cpus1 progress event, total committed:380665879, progress insts committed: 11072087, IPC: 001.1061
16935150905766: Event_284: system.switch_cpus2 progress event, total committed:382940828, progress insts committed: 11303705, IPC: 01.12924
16935150905766: Event_285: system.switch_cpus3 progress event, total committed:382356964, progress insts committed: 11749481, IPC: 01.17377
16938484239099: Event_285: system.switch_cpus3 progress event, total committed:393994096, progress insts committed: 11637132, IPC: 01.16255
16938484239099: Event_284: system.switch_cpus2 progress event, total committed:394540811, progress insts committed: 11599983, IPC: 01.15884
16938484239099: Event_283: system.switch_cpus1 progress event, total committed:392403228, progress insts committed: 11737349, IPC: 01.17256
16938484239099: Event_282: system.switch_cpus0 progress event, total committed:393954189, progress insts committed: 11606800, IPC: 01.15952
16941817572432: Event_282: system.switch_cpus0 progress event, total committed:405351332, progress insts committed: 11397143, IPC: 01.13857
16941817572432: Event_283: system.switch_cpus1 progress event, total committed:404298184, progress insts committed: 11894956, IPC: 01.18831
16941817572432: Event_284: system.switch_cpus2 progress event, total committed:406344901, progress insts committed: 11804090, IPC: 01.17923
16941817572432: Event_285: system.switch_cpus3 progress event, total committed:405400591, progress insts committed: 11406495, IPC: 01.13951
16945150905765: Event_285: system.switch_cpus3 progress event, total committed:416789808, progress insts committed: 11389217, IPC: 01.13778
16945150905765: Event_284: system.switch_cpus2 progress event, total committed:418181718, progress insts committed: 11836817, IPC: 001.1825
16945150905765: Event_283: system.switch_cpus1 progress event, total committed:416142569, progress insts committed: 11844385, IPC: 01.18325
16945150905765: Event_282: system.switch_cpus0 progress event, total committed:416708989, progress insts committed: 11357657, IPC: 01.13463
16948484239098: Event_282: system.switch_cpus0 progress event, total committed:428175086, progress insts committed: 11466097, IPC: 01.14546
16948484239098: Event_283: system.switch_cpus1 progress event, total committed:427906326, progress insts committed: 11763757, IPC: 001.1752
16948484239098: Event_284: system.switch_cpus2 progress event, total committed:430078354, progress insts committed: 11896636, IPC: 01.18847
16948484239098: Event_285: system.switch_cpus3 progress event, total committed:428287609, progress insts committed: 11497801, IPC: 01.14863
Exiting @ tick 16948756153125 because a thread reached the max instruction count
