Command line:
./runscript_pride.sh mix7 AE.BASELINE.4C 4 2017
Global frequency set at 1000000000000 ticks per second
DRAM config: RowsPerBank: 65536, BanksPerRank: 32, RanksPerChannel: 1
warn: Sockets disabled, not accepting gdb connections
warn: CoherentXBar system.cpu0.mmucache.mmubus has no snooping ports attached!
warn: CoherentXBar system.cpu1.mmucache.mmubus has no snooping ports attached!
warn: CoherentXBar system.cpu2.mmucache.mmubus has no snooping ports attached!
warn: CoherentXBar system.cpu3.mmucache.mmubus has no snooping ports attached!
warn: Checkpoints for file descriptors currently do not work.
warn: Checkpoints for file descriptors currently do not work.
warn: Checkpoints for file descriptors currently do not work.
warn: Checkpoints for file descriptors currently do not work.
gem5 Simulator System.  http://gem5.org
gem5 is copyrighted software; use the --copyright option for details.

gem5 version 20.1.0.5
gem5 compiled Jul 12 2024 12:42:38
gem5 started Jul 31 2024 03:21:19
gem5 executing on a07dda8b130c, pid 225888
command line: /home/user/PrIDE/performance/gem5/build/X86/gem5.opt --outdir=/home/user/PrIDE/performance/gem5/stats/pride_multiprogram_16GBmem_250Mn.SPEC2017.C4/AE.BASELINE.4C/mix7 /home/user/PrIDE/performance/gem5/configs/example/se_rq_spec_config_multicore.py --redirects /lib64=/home/utils/gcc-6.2.0/lib64 --benchmark=mix7 --benchmark_stdout=/home/user/PrIDE/performance/gem5/stats/pride_multiprogram_16GBmem_250Mn.SPEC2017.C4/AE.BASELINE.4C/mix7/mix7.out --benchmark_stderr=/home/user/PrIDE/performance/gem5/stats/pride_multiprogram_16GBmem_250Mn.SPEC2017.C4/AE.BASELINE.4C/mix7/mix7.err --spec-version=2017 --num-cpus=4 --mem-size=16GB --mem-type=DDR5_2400_32x4 --mem-ranks=1 --mem-channels=1 --checkpoint-dir=/home/user/PrIDE/performance/gem5/cpts-DDR5/multiprogram_16GBmem_25Bn.SPEC2017.C4/mix7-1-ref-x86 --checkpoint-restore=25000000000 --at-instruction --cpu-type DerivO3CPU --caches --l2cache --l1d_size=32kB --l1i_size=32kB --l2_size=256kB --l3_size=4MB --l1d_assoc=8 --l1i_assoc=8 --l2_assoc=16 --l3_assoc=16 --cpu-clock=3GHz --sys-clock=3GHz --maxinsts=250000000 --prog-interval=300Hz

info: Standard input is not a terminal, disabling listeners.
Benchmark- 0   povray
Selected benchmark
--> povray
CMD: ['/opt/spec2017/benchspec/CPU/511.povray_r/run/run_base_refrate_gem5_se-m64.0000/povray_r_base.gem5_se-m64', '/opt/spec2017/benchspec/CPU/511.povray_r/run/run_base_refrate_gem5_se-m64.0000/SPEC-benchmark-ref.ini']
CWD: /opt/spec2017/benchspec/CPU/511.povray_r/run/run_base_refrate_gem5_se-m64.0000/
Process stdout file: /home/user/PrIDE/performance/gem5/stats/pride_multiprogram_16GBmem_250Mn.SPEC2017.C4/AE.BASELINE.4C/mix7/mix7.out_0
Process stderr file: /home/user/PrIDE/performance/gem5/stats/pride_multiprogram_16GBmem_250Mn.SPEC2017.C4/AE.BASELINE.4C/mix7/mix7.err_0
Benchmark- 1   roms
Selected benchmark
--> roms
CMD: ['/opt/spec2017/benchspec/CPU/554.roms_r/run/run_base_refrate_gem5_se-m64.0000/roms_r_base.gem5_se-m64']
CWD: /opt/spec2017/benchspec/CPU/554.roms_r/run/run_base_refrate_gem5_se-m64.0000/
Process stdout file: /home/user/PrIDE/performance/gem5/stats/pride_multiprogram_16GBmem_250Mn.SPEC2017.C4/AE.BASELINE.4C/mix7/mix7.out_1
Process stderr file: /home/user/PrIDE/performance/gem5/stats/pride_multiprogram_16GBmem_250Mn.SPEC2017.C4/AE.BASELINE.4C/mix7/mix7.err_1
Benchmark- 2   nab
Selected benchmark
--> nab
CMD: ['/opt/spec2017/benchspec/CPU/544.nab_r/run/run_base_refrate_gem5_se-m64.0000/nab_r_base.gem5_se-m64', '1am0', '1122214447', '122']
CWD: /opt/spec2017/benchspec/CPU/544.nab_r/run/run_base_refrate_gem5_se-m64.0000/
Process stdout file: /home/user/PrIDE/performance/gem5/stats/pride_multiprogram_16GBmem_250Mn.SPEC2017.C4/AE.BASELINE.4C/mix7/mix7.out_2
Process stderr file: /home/user/PrIDE/performance/gem5/stats/pride_multiprogram_16GBmem_250Mn.SPEC2017.C4/AE.BASELINE.4C/mix7/mix7.err_2
Benchmark- 3   bwaves
Selected benchmark
--> bwaves
CMD: ['/opt/spec2017/benchspec/CPU/503.bwaves_r/run/run_base_refrate_gem5_se-m64.0000/bwaves_r_base.gem5_se-m64', '/opt/spec2017/benchspec/CPU/503.bwaves_r/run/run_base_refrate_gem5_se-m64.0000/bwaves_1']
CWD: /opt/spec2017/benchspec/CPU/503.bwaves_r/run/run_base_refrate_gem5_se-m64.0000/
Process stdout file: /home/user/PrIDE/performance/gem5/stats/pride_multiprogram_16GBmem_250Mn.SPEC2017.C4/AE.BASELINE.4C/mix7/mix7.out_3
Process stderr file: /home/user/PrIDE/performance/gem5/stats/pride_multiprogram_16GBmem_250Mn.SPEC2017.C4/AE.BASELINE.4C/mix7/mix7.err_3
Workload-0: 
['/opt/spec2017/benchspec/CPU/511.povray_r/run/run_base_refrate_gem5_se-m64.0000/povray_r_base.gem5_se-m64', '/opt/spec2017/benchspec/CPU/511.povray_r/run/run_base_refrate_gem5_se-m64.0000/SPEC-benchmark-ref.ini']
Workload-1: 
['/opt/spec2017/benchspec/CPU/554.roms_r/run/run_base_refrate_gem5_se-m64.0000/roms_r_base.gem5_se-m64']
Workload-2: 
['/opt/spec2017/benchspec/CPU/544.nab_r/run/run_base_refrate_gem5_se-m64.0000/nab_r_base.gem5_se-m64', '1am0', '1122214447', '122']
Workload-3: 
['/opt/spec2017/benchspec/CPU/503.bwaves_r/run/run_base_refrate_gem5_se-m64.0000/bwaves_r_base.gem5_se-m64', '/opt/spec2017/benchspec/CPU/503.bwaves_r/run/run_base_refrate_gem5_se-m64.0000/bwaves_1']
defense_enable:  False  detector:  MG  mitigation:  RRS  threshold:  800
mg_entries:  1700
rrs_tuples:  3400 rrs_swap_delay:  2740ns rit_acc_delay:  1.25ns
Switch at curTick count:10000
warn: membus.master is deprecated. `master` is now called `mem_side_ports`
warn: No dot file generated. Please install pydot to generate the dot file and pdf.
info: Entering event queue @ 15651257118291.  Starting simulation...
info: Entering event queue @ 15651257128291.  Starting simulation...
warn: PowerState: Already in the requested power state, request ignored
Switched CPUS @ tick 15651257128291
switching cpus
**** REAL SIMULATION ****
info: Entering event queue @ 15651257128947.  Starting simulation...
15654590451624: Event_285: system.switch_cpus3 progress event, total committed:39525564, progress insts committed: 39525564, IPC: 003.9486
15654590451624: Event_284: system.switch_cpus2 progress event, total committed:26515378, progress insts committed: 26515378, IPC: 02.64889
15654590451624: Event_283: system.switch_cpus1 progress event, total committed:8853121, progress insts committed: 8853121, IPC: 0.884427
15654590451624: Event_282: system.switch_cpus0 progress event, total committed:45174606, progress insts committed: 45174606, IPC: 04.51294
15657923784957: Event_282: system.switch_cpus0 progress event, total committed:89270070, progress insts committed: 44095464, IPC: 04.40514
15657923784957: Event_283: system.switch_cpus1 progress event, total committed:17755982, progress insts committed: 8902861, IPC: 0.889396
15657923784957: Event_284: system.switch_cpus2 progress event, total committed:55205410, progress insts committed: 28690032, IPC: 02.86613
15657923784957: Event_285: system.switch_cpus3 progress event, total committed:78935405, progress insts committed: 39409841, IPC: 03.93704
15661257118290: Event_285: system.switch_cpus3 progress event, total committed:118922242, progress insts committed: 39986837, IPC: 03.99469
15661257118290: Event_284: system.switch_cpus2 progress event, total committed:83749236, progress insts committed: 28543826, IPC: 02.85153
15661257118290: Event_283: system.switch_cpus1 progress event, total committed:26783718, progress insts committed: 9027736, IPC: 0.901871
15661257118290: Event_282: system.switch_cpus0 progress event, total committed:134284139, progress insts committed: 45014069, IPC: 04.49691
15664590451623: Event_282: system.switch_cpus0 progress event, total committed:179398750, progress insts committed: 45114611, IPC: 04.50695
15664590451623: Event_283: system.switch_cpus1 progress event, total committed:37195648, progress insts committed: 10411930, IPC: 01.04015
15664590451623: Event_284: system.switch_cpus2 progress event, total committed:108961694, progress insts committed: 25212458, IPC: 02.51872
15664590451623: Event_285: system.switch_cpus3 progress event, total committed:156491473, progress insts committed: 37569231, IPC: 03.75317
15667923784956: Event_285: system.switch_cpus3 progress event, total committed:187184579, progress insts committed: 30693106, IPC: 03.06624
15667923784956: Event_284: system.switch_cpus2 progress event, total committed:132641689, progress insts committed: 23679995, IPC: 02.36563
15667923784956: Event_283: system.switch_cpus1 progress event, total committed:46206887, progress insts committed: 9011239, IPC: 0.900223
15667923784956: Event_282: system.switch_cpus0 progress event, total committed:224305886, progress insts committed: 44907136, IPC: 04.48622
15671257118289: Event_282: system.switch_cpus0 progress event, total committed:269466756, progress insts committed: 45160870, IPC: 04.51157
15671257118289: Event_283: system.switch_cpus1 progress event, total committed:58784714, progress insts committed: 12577827, IPC: 01.25652
15671257118289: Event_284: system.switch_cpus2 progress event, total committed:157957628, progress insts committed: 25315939, IPC: 02.52906
15671257118289: Event_285: system.switch_cpus3 progress event, total committed:228754752, progress insts committed: 41570173, IPC: 04.15286
15674590451622: Event_285: system.switch_cpus3 progress event, total committed:267655982, progress insts committed: 38901230, IPC: 03.88623
15674590451622: Event_284: system.switch_cpus2 progress event, total committed:185722314, progress insts committed: 27764686, IPC: 02.77369
15674590451622: Event_283: system.switch_cpus1 progress event, total committed:83846852, progress insts committed: 25062138, IPC: 02.50371
15674590451622: Event_282: system.switch_cpus0 progress event, total committed:314695436, progress insts committed: 45228680, IPC: 04.51835
15677923784955: Event_282: system.switch_cpus0 progress event, total committed:359931112, progress insts committed: 45235676, IPC: 04.51904
15677923784955: Event_283: system.switch_cpus1 progress event, total committed:108860966, progress insts committed: 25014114, IPC: 02.49891
15677923784955: Event_284: system.switch_cpus2 progress event, total committed:213880099, progress insts committed: 28157785, IPC: 02.81296
15677923784955: Event_285: system.switch_cpus3 progress event, total committed:308090096, progress insts committed: 40434114, IPC: 04.03937
15681257118288: Event_285: system.switch_cpus3 progress event, total committed:348502911, progress insts committed: 40412815, IPC: 04.03724
15681257118288: Event_284: system.switch_cpus2 progress event, total committed:241536146, progress insts committed: 27656047, IPC: 02.76284
15681257118288: Event_283: system.switch_cpus1 progress event, total committed:133652704, progress insts committed: 24791738, IPC: 02.47669
15681257118288: Event_282: system.switch_cpus0 progress event, total committed:405272381, progress insts committed: 45341269, IPC: 04.52959
Exiting @ tick 15684569542188 because a thread reached the max instruction count
