
---------- Begin Simulation Statistics ----------
final_tick                               15684572184210                       # Number of ticks from beginning of simulation (restored from checkpoints and never reset)
host_inst_rate                                 146631                       # Simulator instruction rate (inst/s)
host_mem_usage                               17364348                       # Number of bytes of host memory used
host_op_rate                                   253077                       # Simulator op (including micro ops) rate (op/s)
host_seconds                                  5005.85                       # Real time elapsed on the host
host_tick_rate                                6655233                       # Simulator tick rate (ticks/s)
sim_freq                                 1000000000000                       # Frequency of simulated ticks
sim_insts                                   734015080                       # Number of instructions simulated
sim_ops                                    1266863578                       # Number of ops (including micro ops) simulated
sim_seconds                                  0.033315                       # Number of seconds simulated
sim_ticks                                 33315106878                       # Number of ticks simulated
system.cpu0.Branches                                4                       # Number of branches fetched
system.cpu0.committedInsts                         14                       # Number of instructions committed
system.cpu0.committedOps                           26                       # Number of ops (including micro ops) committed
system.cpu0.idle_fraction                           0                       # Percentage of idle cycles
system.cpu0.l2bus.snoop_filter.hit_multi_requests        27864                       # Number of requests hitting in the snoop filter with multiple (>1) holders of the requested data.
system.cpu0.l2bus.snoop_filter.hit_multi_snoops            0                       # Number of snoops hitting in the snoop filter with multiple (>1) holders of the requested data.
system.cpu0.l2bus.snoop_filter.hit_single_requests      1723682                       # Number of requests hitting in the snoop filter with a single holder of the requested data.
system.cpu0.l2bus.snoop_filter.hit_single_snoops            0                       # Number of snoops hitting in the snoop filter with a single holder of the requested data.
system.cpu0.l2bus.snoop_filter.tot_requests      3448370                       # Total number of requests made to the snoop filter.
system.cpu0.l2bus.snoop_filter.tot_snoops            0                       # Total number of snoops made to the snoop filter.
system.cpu0.mmucache.mmubus.snoop_filter.hit_multi_requests            0                       # Number of requests hitting in the snoop filter with multiple (>1) holders of the requested data.
system.cpu0.mmucache.mmubus.snoop_filter.hit_multi_snoops            0                       # Number of snoops hitting in the snoop filter with multiple (>1) holders of the requested data.
system.cpu0.mmucache.mmubus.snoop_filter.hit_single_requests            0                       # Number of requests hitting in the snoop filter with a single holder of the requested data.
system.cpu0.mmucache.mmubus.snoop_filter.hit_single_snoops            0                       # Number of snoops hitting in the snoop filter with a single holder of the requested data.
system.cpu0.mmucache.mmubus.snoop_filter.tot_requests            0                       # Total number of requests made to the snoop filter.
system.cpu0.mmucache.mmubus.snoop_filter.tot_snoops            0                       # Total number of snoops made to the snoop filter.
system.cpu0.not_idle_fraction                       1                       # Percentage of non-idle cycles
system.cpu0.numCycles                              30                       # number of cpu cycles simulated
system.cpu0.numWorkItemsCompleted                   0                       # number of work items this cpu completed
system.cpu0.numWorkItemsStarted                     0                       # number of work items this cpu started
system.cpu0.num_busy_cycles                        30                       # Number of busy cycles
system.cpu0.num_cc_register_reads                  13                       # number of times the CC registers were read
system.cpu0.num_cc_register_writes                  6                       # number of times the CC registers were written
system.cpu0.num_conditional_control_insts            2                       # number of instructions that are conditional controls
system.cpu0.num_fp_alu_accesses                     6                       # Number of float alu accesses
system.cpu0.num_fp_insts                            6                       # number of float instructions
system.cpu0.num_fp_register_reads                   7                       # number of times the floating registers were read
system.cpu0.num_fp_register_writes                  5                       # number of times the floating registers were written
system.cpu0.num_func_calls                          2                       # number of times a function call or return occured
system.cpu0.num_idle_cycles                         0                       # Number of idle cycles
system.cpu0.num_int_alu_accesses                   24                       # Number of integer alu accesses
system.cpu0.num_int_insts                          24                       # number of integer instructions
system.cpu0.num_int_register_reads                 48                       # number of times the integer registers were read
system.cpu0.num_int_register_writes                15                       # number of times the integer registers were written
system.cpu0.num_load_insts                          5                       # Number of load instructions
system.cpu0.num_mem_refs                            7                       # number of memory refs
system.cpu0.num_store_insts                         2                       # Number of store instructions
system.cpu0.num_vec_alu_accesses                    0                       # Number of vector alu accesses
system.cpu0.num_vec_insts                           0                       # number of vector instructions
system.cpu0.num_vec_register_reads                  0                       # number of times the vector registers were read
system.cpu0.num_vec_register_writes                 0                       # number of times the vector registers were written
system.cpu0.op_class::No_OpClass                    0      0.00%      0.00% # Class of executed instruction
system.cpu0.op_class::IntAlu                       17     65.38%     65.38% # Class of executed instruction
system.cpu0.op_class::IntMult                       0      0.00%     65.38% # Class of executed instruction
system.cpu0.op_class::IntDiv                        0      0.00%     65.38% # Class of executed instruction
system.cpu0.op_class::FloatAdd                      0      0.00%     65.38% # Class of executed instruction
system.cpu0.op_class::FloatCmp                      0      0.00%     65.38% # Class of executed instruction
system.cpu0.op_class::FloatCvt                      0      0.00%     65.38% # Class of executed instruction
system.cpu0.op_class::FloatMult                     0      0.00%     65.38% # Class of executed instruction
system.cpu0.op_class::FloatMultAcc                  0      0.00%     65.38% # Class of executed instruction
system.cpu0.op_class::FloatDiv                      0      0.00%     65.38% # Class of executed instruction
system.cpu0.op_class::FloatMisc                     0      0.00%     65.38% # Class of executed instruction
system.cpu0.op_class::FloatSqrt                     0      0.00%     65.38% # Class of executed instruction
system.cpu0.op_class::SimdAdd                       0      0.00%     65.38% # Class of executed instruction
system.cpu0.op_class::SimdAddAcc                    0      0.00%     65.38% # Class of executed instruction
system.cpu0.op_class::SimdAlu                       0      0.00%     65.38% # Class of executed instruction
system.cpu0.op_class::SimdCmp                       0      0.00%     65.38% # Class of executed instruction
system.cpu0.op_class::SimdCvt                       0      0.00%     65.38% # Class of executed instruction
system.cpu0.op_class::SimdMisc                      0      0.00%     65.38% # Class of executed instruction
system.cpu0.op_class::SimdMult                      0      0.00%     65.38% # Class of executed instruction
system.cpu0.op_class::SimdMultAcc                   0      0.00%     65.38% # Class of executed instruction
system.cpu0.op_class::SimdShift                     0      0.00%     65.38% # Class of executed instruction
system.cpu0.op_class::SimdShiftAcc                  0      0.00%     65.38% # Class of executed instruction
system.cpu0.op_class::SimdDiv                       0      0.00%     65.38% # Class of executed instruction
system.cpu0.op_class::SimdSqrt                      0      0.00%     65.38% # Class of executed instruction
system.cpu0.op_class::SimdFloatAdd                  1      3.85%     69.23% # Class of executed instruction
system.cpu0.op_class::SimdFloatAlu                  0      0.00%     69.23% # Class of executed instruction
system.cpu0.op_class::SimdFloatCmp                  0      0.00%     69.23% # Class of executed instruction
system.cpu0.op_class::SimdFloatCvt                  0      0.00%     69.23% # Class of executed instruction
system.cpu0.op_class::SimdFloatDiv                  0      0.00%     69.23% # Class of executed instruction
system.cpu0.op_class::SimdFloatMisc                 0      0.00%     69.23% # Class of executed instruction
system.cpu0.op_class::SimdFloatMult                 1      3.85%     73.08% # Class of executed instruction
system.cpu0.op_class::SimdFloatMultAcc              0      0.00%     73.08% # Class of executed instruction
system.cpu0.op_class::SimdFloatSqrt                 0      0.00%     73.08% # Class of executed instruction
system.cpu0.op_class::SimdReduceAdd                 0      0.00%     73.08% # Class of executed instruction
system.cpu0.op_class::SimdReduceAlu                 0      0.00%     73.08% # Class of executed instruction
system.cpu0.op_class::SimdReduceCmp                 0      0.00%     73.08% # Class of executed instruction
system.cpu0.op_class::SimdFloatReduceAdd            0      0.00%     73.08% # Class of executed instruction
system.cpu0.op_class::SimdFloatReduceCmp            0      0.00%     73.08% # Class of executed instruction
system.cpu0.op_class::SimdAes                       0      0.00%     73.08% # Class of executed instruction
system.cpu0.op_class::SimdAesMix                    0      0.00%     73.08% # Class of executed instruction
system.cpu0.op_class::SimdSha1Hash                  0      0.00%     73.08% # Class of executed instruction
system.cpu0.op_class::SimdSha1Hash2                 0      0.00%     73.08% # Class of executed instruction
system.cpu0.op_class::SimdSha256Hash                0      0.00%     73.08% # Class of executed instruction
system.cpu0.op_class::SimdSha256Hash2               0      0.00%     73.08% # Class of executed instruction
system.cpu0.op_class::SimdShaSigma2                 0      0.00%     73.08% # Class of executed instruction
system.cpu0.op_class::SimdShaSigma3                 0      0.00%     73.08% # Class of executed instruction
system.cpu0.op_class::SimdPredAlu                   0      0.00%     73.08% # Class of executed instruction
system.cpu0.op_class::MemRead                       2      7.69%     80.77% # Class of executed instruction
system.cpu0.op_class::MemWrite                      1      3.85%     84.62% # Class of executed instruction
system.cpu0.op_class::FloatMemRead                  3     11.54%     96.15% # Class of executed instruction
system.cpu0.op_class::FloatMemWrite                 1      3.85%    100.00% # Class of executed instruction
system.cpu0.op_class::IprAccess                     0      0.00%    100.00% # Class of executed instruction
system.cpu0.op_class::InstPrefetch                  0      0.00%    100.00% # Class of executed instruction
system.cpu0.op_class::total                        26                       # Class of executed instruction
system.cpu0.workload.numSyscalls                    2                       # Number of system calls
system.cpu1.Branches                                1                       # Number of branches fetched
system.cpu1.committedInsts                         14                       # Number of instructions committed
system.cpu1.committedOps                           23                       # Number of ops (including micro ops) committed
system.cpu1.idle_fraction                           0                       # Percentage of idle cycles
system.cpu1.l2bus.snoop_filter.hit_multi_requests            2                       # Number of requests hitting in the snoop filter with multiple (>1) holders of the requested data.
system.cpu1.l2bus.snoop_filter.hit_multi_snoops            0                       # Number of snoops hitting in the snoop filter with multiple (>1) holders of the requested data.
system.cpu1.l2bus.snoop_filter.hit_single_requests      1514206                       # Number of requests hitting in the snoop filter with a single holder of the requested data.
system.cpu1.l2bus.snoop_filter.hit_single_snoops         2021                       # Number of snoops hitting in the snoop filter with a single holder of the requested data.
system.cpu1.l2bus.snoop_filter.tot_requests      2959534                       # Total number of requests made to the snoop filter.
system.cpu1.l2bus.snoop_filter.tot_snoops         2021                       # Total number of snoops made to the snoop filter.
system.cpu1.mmucache.mmubus.snoop_filter.hit_multi_requests            0                       # Number of requests hitting in the snoop filter with multiple (>1) holders of the requested data.
system.cpu1.mmucache.mmubus.snoop_filter.hit_multi_snoops            0                       # Number of snoops hitting in the snoop filter with multiple (>1) holders of the requested data.
system.cpu1.mmucache.mmubus.snoop_filter.hit_single_requests            0                       # Number of requests hitting in the snoop filter with a single holder of the requested data.
system.cpu1.mmucache.mmubus.snoop_filter.hit_single_snoops            0                       # Number of snoops hitting in the snoop filter with a single holder of the requested data.
system.cpu1.mmucache.mmubus.snoop_filter.tot_requests            0                       # Total number of requests made to the snoop filter.
system.cpu1.mmucache.mmubus.snoop_filter.tot_snoops            0                       # Total number of snoops made to the snoop filter.
system.cpu1.not_idle_fraction                       1                       # Percentage of non-idle cycles
system.cpu1.numCycles                              30                       # number of cpu cycles simulated
system.cpu1.numWorkItemsCompleted                   0                       # number of work items this cpu completed
system.cpu1.numWorkItemsStarted                     0                       # number of work items this cpu started
system.cpu1.num_busy_cycles                        30                       # Number of busy cycles
system.cpu1.num_cc_register_reads                   5                       # number of times the CC registers were read
system.cpu1.num_cc_register_writes                  8                       # number of times the CC registers were written
system.cpu1.num_conditional_control_insts            1                       # number of instructions that are conditional controls
system.cpu1.num_fp_alu_accesses                    12                       # Number of float alu accesses
system.cpu1.num_fp_insts                           12                       # number of float instructions
system.cpu1.num_fp_register_reads                  21                       # number of times the floating registers were read
system.cpu1.num_fp_register_writes                 11                       # number of times the floating registers were written
system.cpu1.num_func_calls                          0                       # number of times a function call or return occured
system.cpu1.num_idle_cycles                         0                       # Number of idle cycles
system.cpu1.num_int_alu_accesses                   16                       # Number of integer alu accesses
system.cpu1.num_int_insts                          16                       # number of integer instructions
system.cpu1.num_int_register_reads                 33                       # number of times the integer registers were read
system.cpu1.num_int_register_writes                10                       # number of times the integer registers were written
system.cpu1.num_load_insts                          6                       # Number of load instructions
system.cpu1.num_mem_refs                            7                       # number of memory refs
system.cpu1.num_store_insts                         1                       # Number of store instructions
system.cpu1.num_vec_alu_accesses                    0                       # Number of vector alu accesses
system.cpu1.num_vec_insts                           0                       # number of vector instructions
system.cpu1.num_vec_register_reads                  0                       # number of times the vector registers were read
system.cpu1.num_vec_register_writes                 0                       # number of times the vector registers were written
system.cpu1.op_class::No_OpClass                    0      0.00%      0.00% # Class of executed instruction
system.cpu1.op_class::IntAlu                       10     43.48%     43.48% # Class of executed instruction
system.cpu1.op_class::IntMult                       0      0.00%     43.48% # Class of executed instruction
system.cpu1.op_class::IntDiv                        0      0.00%     43.48% # Class of executed instruction
system.cpu1.op_class::FloatAdd                      0      0.00%     43.48% # Class of executed instruction
system.cpu1.op_class::FloatCmp                      0      0.00%     43.48% # Class of executed instruction
system.cpu1.op_class::FloatCvt                      0      0.00%     43.48% # Class of executed instruction
system.cpu1.op_class::FloatMult                     0      0.00%     43.48% # Class of executed instruction
system.cpu1.op_class::FloatMultAcc                  0      0.00%     43.48% # Class of executed instruction
system.cpu1.op_class::FloatDiv                      0      0.00%     43.48% # Class of executed instruction
system.cpu1.op_class::FloatMisc                     0      0.00%     43.48% # Class of executed instruction
system.cpu1.op_class::FloatSqrt                     0      0.00%     43.48% # Class of executed instruction
system.cpu1.op_class::SimdAdd                       0      0.00%     43.48% # Class of executed instruction
system.cpu1.op_class::SimdAddAcc                    0      0.00%     43.48% # Class of executed instruction
system.cpu1.op_class::SimdAlu                       0      0.00%     43.48% # Class of executed instruction
system.cpu1.op_class::SimdCmp                       0      0.00%     43.48% # Class of executed instruction
system.cpu1.op_class::SimdCvt                       0      0.00%     43.48% # Class of executed instruction
system.cpu1.op_class::SimdMisc                      0      0.00%     43.48% # Class of executed instruction
system.cpu1.op_class::SimdMult                      0      0.00%     43.48% # Class of executed instruction
system.cpu1.op_class::SimdMultAcc                   0      0.00%     43.48% # Class of executed instruction
system.cpu1.op_class::SimdShift                     0      0.00%     43.48% # Class of executed instruction
system.cpu1.op_class::SimdShiftAcc                  0      0.00%     43.48% # Class of executed instruction
system.cpu1.op_class::SimdDiv                       0      0.00%     43.48% # Class of executed instruction
system.cpu1.op_class::SimdSqrt                      0      0.00%     43.48% # Class of executed instruction
system.cpu1.op_class::SimdFloatAdd                  4     17.39%     60.87% # Class of executed instruction
system.cpu1.op_class::SimdFloatAlu                  0      0.00%     60.87% # Class of executed instruction
system.cpu1.op_class::SimdFloatCmp                  0      0.00%     60.87% # Class of executed instruction
system.cpu1.op_class::SimdFloatCvt                  0      0.00%     60.87% # Class of executed instruction
system.cpu1.op_class::SimdFloatDiv                  0      0.00%     60.87% # Class of executed instruction
system.cpu1.op_class::SimdFloatMisc                 0      0.00%     60.87% # Class of executed instruction
system.cpu1.op_class::SimdFloatMult                 2      8.70%     69.57% # Class of executed instruction
system.cpu1.op_class::SimdFloatMultAcc              0      0.00%     69.57% # Class of executed instruction
system.cpu1.op_class::SimdFloatSqrt                 0      0.00%     69.57% # Class of executed instruction
system.cpu1.op_class::SimdReduceAdd                 0      0.00%     69.57% # Class of executed instruction
system.cpu1.op_class::SimdReduceAlu                 0      0.00%     69.57% # Class of executed instruction
system.cpu1.op_class::SimdReduceCmp                 0      0.00%     69.57% # Class of executed instruction
system.cpu1.op_class::SimdFloatReduceAdd            0      0.00%     69.57% # Class of executed instruction
system.cpu1.op_class::SimdFloatReduceCmp            0      0.00%     69.57% # Class of executed instruction
system.cpu1.op_class::SimdAes                       0      0.00%     69.57% # Class of executed instruction
system.cpu1.op_class::SimdAesMix                    0      0.00%     69.57% # Class of executed instruction
system.cpu1.op_class::SimdSha1Hash                  0      0.00%     69.57% # Class of executed instruction
system.cpu1.op_class::SimdSha1Hash2                 0      0.00%     69.57% # Class of executed instruction
system.cpu1.op_class::SimdSha256Hash                0      0.00%     69.57% # Class of executed instruction
system.cpu1.op_class::SimdSha256Hash2               0      0.00%     69.57% # Class of executed instruction
system.cpu1.op_class::SimdShaSigma2                 0      0.00%     69.57% # Class of executed instruction
system.cpu1.op_class::SimdShaSigma3                 0      0.00%     69.57% # Class of executed instruction
system.cpu1.op_class::SimdPredAlu                   0      0.00%     69.57% # Class of executed instruction
system.cpu1.op_class::MemRead                       2      8.70%     78.26% # Class of executed instruction
system.cpu1.op_class::MemWrite                      0      0.00%     78.26% # Class of executed instruction
system.cpu1.op_class::FloatMemRead                  4     17.39%     95.65% # Class of executed instruction
system.cpu1.op_class::FloatMemWrite                 1      4.35%    100.00% # Class of executed instruction
system.cpu1.op_class::IprAccess                     0      0.00%    100.00% # Class of executed instruction
system.cpu1.op_class::InstPrefetch                  0      0.00%    100.00% # Class of executed instruction
system.cpu1.op_class::total                        23                       # Class of executed instruction
system.cpu1.workload.numSyscalls                    0                       # Number of system calls
system.cpu2.Branches                                1                       # Number of branches fetched
system.cpu2.committedInsts                         17                       # Number of instructions committed
system.cpu2.committedOps                           23                       # Number of ops (including micro ops) committed
system.cpu2.idle_fraction                           0                       # Percentage of idle cycles
system.cpu2.l2bus.snoop_filter.hit_multi_requests            0                       # Number of requests hitting in the snoop filter with multiple (>1) holders of the requested data.
system.cpu2.l2bus.snoop_filter.hit_multi_snoops            0                       # Number of snoops hitting in the snoop filter with multiple (>1) holders of the requested data.
system.cpu2.l2bus.snoop_filter.hit_single_requests      1838620                       # Number of requests hitting in the snoop filter with a single holder of the requested data.
system.cpu2.l2bus.snoop_filter.hit_single_snoops          489                       # Number of snoops hitting in the snoop filter with a single holder of the requested data.
system.cpu2.l2bus.snoop_filter.tot_requests      3668130                       # Total number of requests made to the snoop filter.
system.cpu2.l2bus.snoop_filter.tot_snoops          489                       # Total number of snoops made to the snoop filter.
system.cpu2.mmucache.mmubus.snoop_filter.hit_multi_requests            0                       # Number of requests hitting in the snoop filter with multiple (>1) holders of the requested data.
system.cpu2.mmucache.mmubus.snoop_filter.hit_multi_snoops            0                       # Number of snoops hitting in the snoop filter with multiple (>1) holders of the requested data.
system.cpu2.mmucache.mmubus.snoop_filter.hit_single_requests            0                       # Number of requests hitting in the snoop filter with a single holder of the requested data.
system.cpu2.mmucache.mmubus.snoop_filter.hit_single_snoops            0                       # Number of snoops hitting in the snoop filter with a single holder of the requested data.
system.cpu2.mmucache.mmubus.snoop_filter.tot_requests            0                       # Total number of requests made to the snoop filter.
system.cpu2.mmucache.mmubus.snoop_filter.tot_snoops            0                       # Total number of snoops made to the snoop filter.
system.cpu2.not_idle_fraction                       1                       # Percentage of non-idle cycles
system.cpu2.numCycles                              30                       # number of cpu cycles simulated
system.cpu2.numWorkItemsCompleted                   0                       # number of work items this cpu completed
system.cpu2.numWorkItemsStarted                     0                       # number of work items this cpu started
system.cpu2.num_busy_cycles                        30                       # Number of busy cycles
system.cpu2.num_cc_register_reads                   5                       # number of times the CC registers were read
system.cpu2.num_cc_register_writes                  2                       # number of times the CC registers were written
system.cpu2.num_conditional_control_insts            1                       # number of instructions that are conditional controls
system.cpu2.num_fp_alu_accesses                    14                       # Number of float alu accesses
system.cpu2.num_fp_insts                           14                       # number of float instructions
system.cpu2.num_fp_register_reads                  30                       # number of times the floating registers were read
system.cpu2.num_fp_register_writes                 14                       # number of times the floating registers were written
system.cpu2.num_func_calls                          0                       # number of times a function call or return occured
system.cpu2.num_idle_cycles                         0                       # Number of idle cycles
system.cpu2.num_int_alu_accesses                   12                       # Number of integer alu accesses
system.cpu2.num_int_insts                          12                       # number of integer instructions
system.cpu2.num_int_register_reads                 25                       # number of times the integer registers were read
system.cpu2.num_int_register_writes                 8                       # number of times the integer registers were written
system.cpu2.num_load_insts                          3                       # Number of load instructions
system.cpu2.num_mem_refs                            3                       # number of memory refs
system.cpu2.num_store_insts                         0                       # Number of store instructions
system.cpu2.num_vec_alu_accesses                    0                       # Number of vector alu accesses
system.cpu2.num_vec_insts                           0                       # number of vector instructions
system.cpu2.num_vec_register_reads                  0                       # number of times the vector registers were read
system.cpu2.num_vec_register_writes                 0                       # number of times the vector registers were written
system.cpu2.op_class::No_OpClass                    0      0.00%      0.00% # Class of executed instruction
system.cpu2.op_class::IntAlu                       12     52.17%     52.17% # Class of executed instruction
system.cpu2.op_class::IntMult                       0      0.00%     52.17% # Class of executed instruction
system.cpu2.op_class::IntDiv                        0      0.00%     52.17% # Class of executed instruction
system.cpu2.op_class::FloatAdd                      0      0.00%     52.17% # Class of executed instruction
system.cpu2.op_class::FloatCmp                      0      0.00%     52.17% # Class of executed instruction
system.cpu2.op_class::FloatCvt                      0      0.00%     52.17% # Class of executed instruction
system.cpu2.op_class::FloatMult                     0      0.00%     52.17% # Class of executed instruction
system.cpu2.op_class::FloatMultAcc                  0      0.00%     52.17% # Class of executed instruction
system.cpu2.op_class::FloatDiv                      0      0.00%     52.17% # Class of executed instruction
system.cpu2.op_class::FloatMisc                     0      0.00%     52.17% # Class of executed instruction
system.cpu2.op_class::FloatSqrt                     0      0.00%     52.17% # Class of executed instruction
system.cpu2.op_class::SimdAdd                       0      0.00%     52.17% # Class of executed instruction
system.cpu2.op_class::SimdAddAcc                    0      0.00%     52.17% # Class of executed instruction
system.cpu2.op_class::SimdAlu                       0      0.00%     52.17% # Class of executed instruction
system.cpu2.op_class::SimdCmp                       0      0.00%     52.17% # Class of executed instruction
system.cpu2.op_class::SimdCvt                       0      0.00%     52.17% # Class of executed instruction
system.cpu2.op_class::SimdMisc                      0      0.00%     52.17% # Class of executed instruction
system.cpu2.op_class::SimdMult                      0      0.00%     52.17% # Class of executed instruction
system.cpu2.op_class::SimdMultAcc                   0      0.00%     52.17% # Class of executed instruction
system.cpu2.op_class::SimdShift                     0      0.00%     52.17% # Class of executed instruction
system.cpu2.op_class::SimdShiftAcc                  0      0.00%     52.17% # Class of executed instruction
system.cpu2.op_class::SimdDiv                       0      0.00%     52.17% # Class of executed instruction
system.cpu2.op_class::SimdSqrt                      0      0.00%     52.17% # Class of executed instruction
system.cpu2.op_class::SimdFloatAdd                  5     21.74%     73.91% # Class of executed instruction
system.cpu2.op_class::SimdFloatAlu                  0      0.00%     73.91% # Class of executed instruction
system.cpu2.op_class::SimdFloatCmp                  0      0.00%     73.91% # Class of executed instruction
system.cpu2.op_class::SimdFloatCvt                  0      0.00%     73.91% # Class of executed instruction
system.cpu2.op_class::SimdFloatDiv                  0      0.00%     73.91% # Class of executed instruction
system.cpu2.op_class::SimdFloatMisc                 0      0.00%     73.91% # Class of executed instruction
system.cpu2.op_class::SimdFloatMult                 3     13.04%     86.96% # Class of executed instruction
system.cpu2.op_class::SimdFloatMultAcc              0      0.00%     86.96% # Class of executed instruction
system.cpu2.op_class::SimdFloatSqrt                 0      0.00%     86.96% # Class of executed instruction
system.cpu2.op_class::SimdReduceAdd                 0      0.00%     86.96% # Class of executed instruction
system.cpu2.op_class::SimdReduceAlu                 0      0.00%     86.96% # Class of executed instruction
system.cpu2.op_class::SimdReduceCmp                 0      0.00%     86.96% # Class of executed instruction
system.cpu2.op_class::SimdFloatReduceAdd            0      0.00%     86.96% # Class of executed instruction
system.cpu2.op_class::SimdFloatReduceCmp            0      0.00%     86.96% # Class of executed instruction
system.cpu2.op_class::SimdAes                       0      0.00%     86.96% # Class of executed instruction
system.cpu2.op_class::SimdAesMix                    0      0.00%     86.96% # Class of executed instruction
system.cpu2.op_class::SimdSha1Hash                  0      0.00%     86.96% # Class of executed instruction
system.cpu2.op_class::SimdSha1Hash2                 0      0.00%     86.96% # Class of executed instruction
system.cpu2.op_class::SimdSha256Hash                0      0.00%     86.96% # Class of executed instruction
system.cpu2.op_class::SimdSha256Hash2               0      0.00%     86.96% # Class of executed instruction
system.cpu2.op_class::SimdShaSigma2                 0      0.00%     86.96% # Class of executed instruction
system.cpu2.op_class::SimdShaSigma3                 0      0.00%     86.96% # Class of executed instruction
system.cpu2.op_class::SimdPredAlu                   0      0.00%     86.96% # Class of executed instruction
system.cpu2.op_class::MemRead                       0      0.00%     86.96% # Class of executed instruction
system.cpu2.op_class::MemWrite                      0      0.00%     86.96% # Class of executed instruction
system.cpu2.op_class::FloatMemRead                  3     13.04%    100.00% # Class of executed instruction
system.cpu2.op_class::FloatMemWrite                 0      0.00%    100.00% # Class of executed instruction
system.cpu2.op_class::IprAccess                     0      0.00%    100.00% # Class of executed instruction
system.cpu2.op_class::InstPrefetch                  0      0.00%    100.00% # Class of executed instruction
system.cpu2.op_class::total                        23                       # Class of executed instruction
system.cpu2.workload.numSyscalls                    0                       # Number of system calls
system.cpu3.Branches                                2                       # Number of branches fetched
system.cpu3.committedInsts                         16                       # Number of instructions committed
system.cpu3.committedOps                           28                       # Number of ops (including micro ops) committed
system.cpu3.idle_fraction                           0                       # Percentage of idle cycles
system.cpu3.l2bus.snoop_filter.hit_multi_requests            2                       # Number of requests hitting in the snoop filter with multiple (>1) holders of the requested data.
system.cpu3.l2bus.snoop_filter.hit_multi_snoops            0                       # Number of snoops hitting in the snoop filter with multiple (>1) holders of the requested data.
system.cpu3.l2bus.snoop_filter.hit_single_requests        35225                       # Number of requests hitting in the snoop filter with a single holder of the requested data.
system.cpu3.l2bus.snoop_filter.hit_single_snoops          527                       # Number of snoops hitting in the snoop filter with a single holder of the requested data.
system.cpu3.l2bus.snoop_filter.tot_requests        71237                       # Total number of requests made to the snoop filter.
system.cpu3.l2bus.snoop_filter.tot_snoops          527                       # Total number of snoops made to the snoop filter.
system.cpu3.mmucache.mmubus.snoop_filter.hit_multi_requests            0                       # Number of requests hitting in the snoop filter with multiple (>1) holders of the requested data.
system.cpu3.mmucache.mmubus.snoop_filter.hit_multi_snoops            0                       # Number of snoops hitting in the snoop filter with multiple (>1) holders of the requested data.
system.cpu3.mmucache.mmubus.snoop_filter.hit_single_requests            0                       # Number of requests hitting in the snoop filter with a single holder of the requested data.
system.cpu3.mmucache.mmubus.snoop_filter.hit_single_snoops            0                       # Number of snoops hitting in the snoop filter with a single holder of the requested data.
system.cpu3.mmucache.mmubus.snoop_filter.tot_requests            0                       # Total number of requests made to the snoop filter.
system.cpu3.mmucache.mmubus.snoop_filter.tot_snoops            0                       # Total number of snoops made to the snoop filter.
system.cpu3.not_idle_fraction                       1                       # Percentage of non-idle cycles
system.cpu3.numCycles                              31                       # number of cpu cycles simulated
system.cpu3.numWorkItemsCompleted                   0                       # number of work items this cpu completed
system.cpu3.numWorkItemsStarted                     0                       # number of work items this cpu started
system.cpu3.num_busy_cycles                        31                       # Number of busy cycles
system.cpu3.num_cc_register_reads                  10                       # number of times the CC registers were read
system.cpu3.num_cc_register_writes                 18                       # number of times the CC registers were written
system.cpu3.num_conditional_control_insts            2                       # number of instructions that are conditional controls
system.cpu3.num_fp_alu_accesses                     0                       # Number of float alu accesses
system.cpu3.num_fp_insts                            0                       # number of float instructions
system.cpu3.num_fp_register_reads                   0                       # number of times the floating registers were read
system.cpu3.num_fp_register_writes                  0                       # number of times the floating registers were written
system.cpu3.num_func_calls                          0                       # number of times a function call or return occured
system.cpu3.num_idle_cycles                         0                       # Number of idle cycles
system.cpu3.num_int_alu_accesses                   28                       # Number of integer alu accesses
system.cpu3.num_int_insts                          28                       # number of integer instructions
system.cpu3.num_int_register_reads                 54                       # number of times the integer registers were read
system.cpu3.num_int_register_writes                28                       # number of times the integer registers were written
system.cpu3.num_load_insts                          6                       # Number of load instructions
system.cpu3.num_mem_refs                            6                       # number of memory refs
system.cpu3.num_store_insts                         0                       # Number of store instructions
system.cpu3.num_vec_alu_accesses                    0                       # Number of vector alu accesses
system.cpu3.num_vec_insts                           0                       # number of vector instructions
system.cpu3.num_vec_register_reads                  0                       # number of times the vector registers were read
system.cpu3.num_vec_register_writes                 0                       # number of times the vector registers were written
system.cpu3.op_class::No_OpClass                    0      0.00%      0.00% # Class of executed instruction
system.cpu3.op_class::IntAlu                       20     71.43%     71.43% # Class of executed instruction
system.cpu3.op_class::IntMult                       2      7.14%     78.57% # Class of executed instruction
system.cpu3.op_class::IntDiv                        0      0.00%     78.57% # Class of executed instruction
system.cpu3.op_class::FloatAdd                      0      0.00%     78.57% # Class of executed instruction
system.cpu3.op_class::FloatCmp                      0      0.00%     78.57% # Class of executed instruction
system.cpu3.op_class::FloatCvt                      0      0.00%     78.57% # Class of executed instruction
system.cpu3.op_class::FloatMult                     0      0.00%     78.57% # Class of executed instruction
system.cpu3.op_class::FloatMultAcc                  0      0.00%     78.57% # Class of executed instruction
system.cpu3.op_class::FloatDiv                      0      0.00%     78.57% # Class of executed instruction
system.cpu3.op_class::FloatMisc                     0      0.00%     78.57% # Class of executed instruction
system.cpu3.op_class::FloatSqrt                     0      0.00%     78.57% # Class of executed instruction
system.cpu3.op_class::SimdAdd                       0      0.00%     78.57% # Class of executed instruction
system.cpu3.op_class::SimdAddAcc                    0      0.00%     78.57% # Class of executed instruction
system.cpu3.op_class::SimdAlu                       0      0.00%     78.57% # Class of executed instruction
system.cpu3.op_class::SimdCmp                       0      0.00%     78.57% # Class of executed instruction
system.cpu3.op_class::SimdCvt                       0      0.00%     78.57% # Class of executed instruction
system.cpu3.op_class::SimdMisc                      0      0.00%     78.57% # Class of executed instruction
system.cpu3.op_class::SimdMult                      0      0.00%     78.57% # Class of executed instruction
system.cpu3.op_class::SimdMultAcc                   0      0.00%     78.57% # Class of executed instruction
system.cpu3.op_class::SimdShift                     0      0.00%     78.57% # Class of executed instruction
system.cpu3.op_class::SimdShiftAcc                  0      0.00%     78.57% # Class of executed instruction
system.cpu3.op_class::SimdDiv                       0      0.00%     78.57% # Class of executed instruction
system.cpu3.op_class::SimdSqrt                      0      0.00%     78.57% # Class of executed instruction
system.cpu3.op_class::SimdFloatAdd                  0      0.00%     78.57% # Class of executed instruction
system.cpu3.op_class::SimdFloatAlu                  0      0.00%     78.57% # Class of executed instruction
system.cpu3.op_class::SimdFloatCmp                  0      0.00%     78.57% # Class of executed instruction
system.cpu3.op_class::SimdFloatCvt                  0      0.00%     78.57% # Class of executed instruction
system.cpu3.op_class::SimdFloatDiv                  0      0.00%     78.57% # Class of executed instruction
system.cpu3.op_class::SimdFloatMisc                 0      0.00%     78.57% # Class of executed instruction
system.cpu3.op_class::SimdFloatMult                 0      0.00%     78.57% # Class of executed instruction
system.cpu3.op_class::SimdFloatMultAcc              0      0.00%     78.57% # Class of executed instruction
system.cpu3.op_class::SimdFloatSqrt                 0      0.00%     78.57% # Class of executed instruction
system.cpu3.op_class::SimdReduceAdd                 0      0.00%     78.57% # Class of executed instruction
system.cpu3.op_class::SimdReduceAlu                 0      0.00%     78.57% # Class of executed instruction
system.cpu3.op_class::SimdReduceCmp                 0      0.00%     78.57% # Class of executed instruction
system.cpu3.op_class::SimdFloatReduceAdd            0      0.00%     78.57% # Class of executed instruction
system.cpu3.op_class::SimdFloatReduceCmp            0      0.00%     78.57% # Class of executed instruction
system.cpu3.op_class::SimdAes                       0      0.00%     78.57% # Class of executed instruction
system.cpu3.op_class::SimdAesMix                    0      0.00%     78.57% # Class of executed instruction
system.cpu3.op_class::SimdSha1Hash                  0      0.00%     78.57% # Class of executed instruction
system.cpu3.op_class::SimdSha1Hash2                 0      0.00%     78.57% # Class of executed instruction
system.cpu3.op_class::SimdSha256Hash                0      0.00%     78.57% # Class of executed instruction
system.cpu3.op_class::SimdSha256Hash2               0      0.00%     78.57% # Class of executed instruction
system.cpu3.op_class::SimdShaSigma2                 0      0.00%     78.57% # Class of executed instruction
system.cpu3.op_class::SimdShaSigma3                 0      0.00%     78.57% # Class of executed instruction
system.cpu3.op_class::SimdPredAlu                   0      0.00%     78.57% # Class of executed instruction
system.cpu3.op_class::MemRead                       6     21.43%    100.00% # Class of executed instruction
system.cpu3.op_class::MemWrite                      0      0.00%    100.00% # Class of executed instruction
system.cpu3.op_class::FloatMemRead                  0      0.00%    100.00% # Class of executed instruction
system.cpu3.op_class::FloatMemWrite                 0      0.00%    100.00% # Class of executed instruction
system.cpu3.op_class::IprAccess                     0      0.00%    100.00% # Class of executed instruction
system.cpu3.op_class::InstPrefetch                  0      0.00%    100.00% # Class of executed instruction
system.cpu3.op_class::total                        28                       # Class of executed instruction
system.cpu3.workload.numSyscalls                    0                       # Number of system calls
system.l3bus.snoop_filter.hit_multi_requests            0                       # Number of requests hitting in the snoop filter with multiple (>1) holders of the requested data.
system.l3bus.snoop_filter.hit_multi_snoops            0                       # Number of snoops hitting in the snoop filter with multiple (>1) holders of the requested data.
system.l3bus.snoop_filter.hit_single_requests      1225437                       # Number of requests hitting in the snoop filter with a single holder of the requested data.
system.l3bus.snoop_filter.hit_single_snoops            0                       # Number of snoops hitting in the snoop filter with a single holder of the requested data.
system.l3bus.snoop_filter.tot_requests        2466315                       # Total number of requests made to the snoop filter.
system.l3bus.snoop_filter.tot_snoops                0                       # Total number of snoops made to the snoop filter.
system.membus.snoop_filter.hit_multi_requests            0                       # Number of requests hitting in the snoop filter with multiple (>1) holders of the requested data.
system.membus.snoop_filter.hit_multi_snoops            0                       # Number of snoops hitting in the snoop filter with multiple (>1) holders of the requested data.
system.membus.snoop_filter.hit_single_requests       641299                       # Number of requests hitting in the snoop filter with a single holder of the requested data.
system.membus.snoop_filter.hit_single_snoops            0                       # Number of snoops hitting in the snoop filter with a single holder of the requested data.
system.membus.snoop_filter.tot_requests       1361220                       # Total number of requests made to the snoop filter.
system.membus.snoop_filter.tot_snoops               0                       # Total number of snoops made to the snoop filter.
system.switch_cpus0.cc_regfile_reads        204897483                       # number of cc regfile reads
system.switch_cpus0.cc_regfile_writes       100636403                       # number of cc regfile writes
system.switch_cpus0.committedInsts          250000000                       # Number of Instructions Simulated
system.switch_cpus0.committedOps            450592841                       # Number of Ops (including micro ops) Simulated
system.switch_cpus0.cpi                      0.400181                       # CPI: Cycles Per Instruction
system.switch_cpus0.cpi_total                0.400181                       # CPI: Total CPI of All Threads
system.switch_cpus0.fp_regfile_reads        146843256                       # number of floating regfile reads
system.switch_cpus0.fp_regfile_writes        84294876                       # number of floating regfile writes
system.switch_cpus0.idleCycles                  96382                       # Total number of cycles that the CPU has spent unscheduled due to idling
system.switch_cpus0.iew.branchMispredicts      1080868                       # Number of branch mispredicts detected at execute
system.switch_cpus0.iew.exec_branches        46343915                       # Number of branches executed
system.switch_cpus0.iew.exec_nop                    0                       # number of nop insts executed
system.switch_cpus0.iew.exec_rate            4.803953                       # Inst execution rate
system.switch_cpus0.iew.exec_refs           140959479                       # number of memory reference insts executed
system.switch_cpus0.iew.exec_stores          42844626                       # Number of stores executed
system.switch_cpus0.iew.exec_swp                    0                       # number of swp insts executed
system.switch_cpus0.iew.iewBlockCycles        6374558                       # Number of cycles IEW is blocking
system.switch_cpus0.iew.iewDispLoadInsts    102921266                       # Number of dispatched load instructions
system.switch_cpus0.iew.iewDispNonSpecInsts           10                       # Number of dispatched non-speculative instructions
system.switch_cpus0.iew.iewDispSquashedInsts          388                       # Number of squashed instructions skipped by dispatch
system.switch_cpus0.iew.iewDispStoreInsts     45578560                       # Number of dispatched store instructions
system.switch_cpus0.iew.iewDispatchedInsts    503188598                       # Number of instructions dispatched to IQ
system.switch_cpus0.iew.iewExecLoadInsts     98114853                       # Number of load instructions executed
system.switch_cpus0.iew.iewExecSquashedInsts      2944090                       # Number of squashed instructions skipped in execute
system.switch_cpus0.iew.iewExecutedInsts    480613093                       # Number of executed instructions
system.switch_cpus0.iew.iewIQFullEvents         11000                       # Number of times the IQ has become full, causing a stall
system.switch_cpus0.iew.iewIdleCycles               0                       # Number of cycles IEW is idle
system.switch_cpus0.iew.iewLSQFullEvents       175871                       # Number of times the LSQ has become full, causing a stall
system.switch_cpus0.iew.iewSquashCycles        985469                       # Number of cycles IEW is squashing
system.switch_cpus0.iew.iewUnblockCycles       190786                       # Number of cycles IEW is unblocking
system.switch_cpus0.iew.memOrderViolationEvents        18398                       # Number of memory order violations
system.switch_cpus0.iew.predictedNotTakenIncorrect       700002                       # Number of branches that were predicted not taken incorrectly
system.switch_cpus0.iew.predictedTakenIncorrect       380866                       # Number of branches that were predicted taken incorrectly
system.switch_cpus0.iew.wb_consumers        628404783                       # num instructions consuming a value
system.switch_cpus0.iew.wb_count            478858476                       # cumulative count of insts written-back
system.switch_cpus0.iew.wb_fanout            0.567297                       # average fanout of values written-back
system.switch_cpus0.iew.wb_producers        356492300                       # num instructions producing a value
system.switch_cpus0.iew.wb_rate              4.786415                       # insts written-back per cycle
system.switch_cpus0.iew.wb_sent             480095741                       # cumulative count of insts sent to commit
system.switch_cpus0.int_regfile_reads       665334637                       # number of integer regfile reads
system.switch_cpus0.int_regfile_writes      299903330                       # number of integer regfile writes
system.switch_cpus0.ipc                      2.498867                       # IPC: Instructions Per Cycle
system.switch_cpus0.ipc_total                2.498867                       # IPC: Total IPC of All Threads
system.switch_cpus0.iq.FU_type_0::No_OpClass      2593584      0.54%      0.54% # Type of FU issued
system.switch_cpus0.iq.FU_type_0::IntAlu    289875078     59.95%     60.48% # Type of FU issued
system.switch_cpus0.iq.FU_type_0::IntMult       996969      0.21%     60.69% # Type of FU issued
system.switch_cpus0.iq.FU_type_0::IntDiv            0      0.00%     60.69% # Type of FU issued
system.switch_cpus0.iq.FU_type_0::FloatAdd      1282811      0.27%     60.95% # Type of FU issued
system.switch_cpus0.iq.FU_type_0::FloatCmp            0      0.00%     60.95% # Type of FU issued
system.switch_cpus0.iq.FU_type_0::FloatCvt            0      0.00%     60.95% # Type of FU issued
system.switch_cpus0.iq.FU_type_0::FloatMult            0      0.00%     60.95% # Type of FU issued
system.switch_cpus0.iq.FU_type_0::FloatMultAcc            0      0.00%     60.95% # Type of FU issued
system.switch_cpus0.iq.FU_type_0::FloatDiv            0      0.00%     60.95% # Type of FU issued
system.switch_cpus0.iq.FU_type_0::FloatMisc            0      0.00%     60.95% # Type of FU issued
system.switch_cpus0.iq.FU_type_0::FloatSqrt            0      0.00%     60.95% # Type of FU issued
system.switch_cpus0.iq.FU_type_0::SimdAdd            0      0.00%     60.95% # Type of FU issued
system.switch_cpus0.iq.FU_type_0::SimdAddAcc            0      0.00%     60.95% # Type of FU issued
system.switch_cpus0.iq.FU_type_0::SimdAlu      3080864      0.64%     61.59% # Type of FU issued
system.switch_cpus0.iq.FU_type_0::SimdCmp            0      0.00%     61.59% # Type of FU issued
system.switch_cpus0.iq.FU_type_0::SimdCvt            0      0.00%     61.59% # Type of FU issued
system.switch_cpus0.iq.FU_type_0::SimdMisc       203093      0.04%     61.63% # Type of FU issued
system.switch_cpus0.iq.FU_type_0::SimdMult            0      0.00%     61.63% # Type of FU issued
system.switch_cpus0.iq.FU_type_0::SimdMultAcc            0      0.00%     61.63% # Type of FU issued
system.switch_cpus0.iq.FU_type_0::SimdShift            0      0.00%     61.63% # Type of FU issued
system.switch_cpus0.iq.FU_type_0::SimdShiftAcc            0      0.00%     61.63% # Type of FU issued
system.switch_cpus0.iq.FU_type_0::SimdDiv            0      0.00%     61.63% # Type of FU issued
system.switch_cpus0.iq.FU_type_0::SimdSqrt            0      0.00%     61.63% # Type of FU issued
system.switch_cpus0.iq.FU_type_0::SimdFloatAdd     17405678      3.60%     65.23% # Type of FU issued
system.switch_cpus0.iq.FU_type_0::SimdFloatAlu            0      0.00%     65.23% # Type of FU issued
system.switch_cpus0.iq.FU_type_0::SimdFloatCmp        59472      0.01%     65.25% # Type of FU issued
system.switch_cpus0.iq.FU_type_0::SimdFloatCvt      7601945      1.57%     66.82% # Type of FU issued
system.switch_cpus0.iq.FU_type_0::SimdFloatDiv       597652      0.12%     66.94% # Type of FU issued
system.switch_cpus0.iq.FU_type_0::SimdFloatMisc            0      0.00%     66.94% # Type of FU issued
system.switch_cpus0.iq.FU_type_0::SimdFloatMult     17298239      3.58%     70.52% # Type of FU issued
system.switch_cpus0.iq.FU_type_0::SimdFloatMultAcc            0      0.00%     70.52% # Type of FU issued
system.switch_cpus0.iq.FU_type_0::SimdFloatSqrt        42880      0.01%     70.53% # Type of FU issued
system.switch_cpus0.iq.FU_type_0::SimdReduceAdd            0      0.00%     70.53% # Type of FU issued
system.switch_cpus0.iq.FU_type_0::SimdReduceAlu            0      0.00%     70.53% # Type of FU issued
system.switch_cpus0.iq.FU_type_0::SimdReduceCmp            0      0.00%     70.53% # Type of FU issued
system.switch_cpus0.iq.FU_type_0::SimdFloatReduceAdd            0      0.00%     70.53% # Type of FU issued
system.switch_cpus0.iq.FU_type_0::SimdFloatReduceCmp            0      0.00%     70.53% # Type of FU issued
system.switch_cpus0.iq.FU_type_0::SimdAes            0      0.00%     70.53% # Type of FU issued
system.switch_cpus0.iq.FU_type_0::SimdAesMix            0      0.00%     70.53% # Type of FU issued
system.switch_cpus0.iq.FU_type_0::SimdSha1Hash            0      0.00%     70.53% # Type of FU issued
system.switch_cpus0.iq.FU_type_0::SimdSha1Hash2            0      0.00%     70.53% # Type of FU issued
system.switch_cpus0.iq.FU_type_0::SimdSha256Hash            0      0.00%     70.53% # Type of FU issued
system.switch_cpus0.iq.FU_type_0::SimdSha256Hash2            0      0.00%     70.53% # Type of FU issued
system.switch_cpus0.iq.FU_type_0::SimdShaSigma2            0      0.00%     70.53% # Type of FU issued
system.switch_cpus0.iq.FU_type_0::SimdShaSigma3            0      0.00%     70.53% # Type of FU issued
system.switch_cpus0.iq.FU_type_0::SimdPredAlu            0      0.00%     70.53% # Type of FU issued
system.switch_cpus0.iq.FU_type_0::MemRead     61565475     12.73%     83.26% # Type of FU issued
system.switch_cpus0.iq.FU_type_0::MemWrite     36569243      7.56%     90.82% # Type of FU issued
system.switch_cpus0.iq.FU_type_0::FloatMemRead     37760876      7.81%     98.63% # Type of FU issued
system.switch_cpus0.iq.FU_type_0::FloatMemWrite      6623327      1.37%    100.00% # Type of FU issued
system.switch_cpus0.iq.FU_type_0::IprAccess            0      0.00%    100.00% # Type of FU issued
system.switch_cpus0.iq.FU_type_0::InstPrefetch            0      0.00%    100.00% # Type of FU issued
system.switch_cpus0.iq.FU_type_0::total     483557186                       # Type of FU issued
system.switch_cpus0.iq.fp_alu_accesses      103481856                       # Number of floating point alu accesses
system.switch_cpus0.iq.fp_inst_queue_reads    201955559                       # Number of floating instruction queue reads
system.switch_cpus0.iq.fp_inst_queue_wakeup_accesses     97038492                       # Number of floating instruction queue wakeup accesses
system.switch_cpus0.iq.fp_inst_queue_writes    108797465                       # Number of floating instruction queue writes
system.switch_cpus0.iq.fu_busy_cnt           13851444                       # FU busy when requested
system.switch_cpus0.iq.fu_busy_rate          0.028645                       # FU busy rate (busy events/executed inst)
system.switch_cpus0.iq.fu_full::No_OpClass            0      0.00%      0.00% # attempts to use FU when none available
system.switch_cpus0.iq.fu_full::IntAlu        4054857     29.27%     29.27% # attempts to use FU when none available
system.switch_cpus0.iq.fu_full::IntMult             0      0.00%     29.27% # attempts to use FU when none available
system.switch_cpus0.iq.fu_full::IntDiv              0      0.00%     29.27% # attempts to use FU when none available
system.switch_cpus0.iq.fu_full::FloatAdd        10053      0.07%     29.35% # attempts to use FU when none available
system.switch_cpus0.iq.fu_full::FloatCmp            0      0.00%     29.35% # attempts to use FU when none available
system.switch_cpus0.iq.fu_full::FloatCvt            0      0.00%     29.35% # attempts to use FU when none available
system.switch_cpus0.iq.fu_full::FloatMult            0      0.00%     29.35% # attempts to use FU when none available
system.switch_cpus0.iq.fu_full::FloatMultAcc            0      0.00%     29.35% # attempts to use FU when none available
system.switch_cpus0.iq.fu_full::FloatDiv            0      0.00%     29.35% # attempts to use FU when none available
system.switch_cpus0.iq.fu_full::FloatMisc            0      0.00%     29.35% # attempts to use FU when none available
system.switch_cpus0.iq.fu_full::FloatSqrt            0      0.00%     29.35% # attempts to use FU when none available
system.switch_cpus0.iq.fu_full::SimdAdd             0      0.00%     29.35% # attempts to use FU when none available
system.switch_cpus0.iq.fu_full::SimdAddAcc            0      0.00%     29.35% # attempts to use FU when none available
system.switch_cpus0.iq.fu_full::SimdAlu        206774      1.49%     30.84% # attempts to use FU when none available
system.switch_cpus0.iq.fu_full::SimdCmp             0      0.00%     30.84% # attempts to use FU when none available
system.switch_cpus0.iq.fu_full::SimdCvt             0      0.00%     30.84% # attempts to use FU when none available
system.switch_cpus0.iq.fu_full::SimdMisc            8      0.00%     30.84% # attempts to use FU when none available
system.switch_cpus0.iq.fu_full::SimdMult            0      0.00%     30.84% # attempts to use FU when none available
system.switch_cpus0.iq.fu_full::SimdMultAcc            0      0.00%     30.84% # attempts to use FU when none available
system.switch_cpus0.iq.fu_full::SimdShift            0      0.00%     30.84% # attempts to use FU when none available
system.switch_cpus0.iq.fu_full::SimdShiftAcc            0      0.00%     30.84% # attempts to use FU when none available
system.switch_cpus0.iq.fu_full::SimdDiv             0      0.00%     30.84% # attempts to use FU when none available
system.switch_cpus0.iq.fu_full::SimdSqrt            0      0.00%     30.84% # attempts to use FU when none available
system.switch_cpus0.iq.fu_full::SimdFloatAdd       499394      3.61%     34.44% # attempts to use FU when none available
system.switch_cpus0.iq.fu_full::SimdFloatAlu            0      0.00%     34.44% # attempts to use FU when none available
system.switch_cpus0.iq.fu_full::SimdFloatCmp            0      0.00%     34.44% # attempts to use FU when none available
system.switch_cpus0.iq.fu_full::SimdFloatCvt        51360      0.37%     34.82% # attempts to use FU when none available
system.switch_cpus0.iq.fu_full::SimdFloatDiv            0      0.00%     34.82% # attempts to use FU when none available
system.switch_cpus0.iq.fu_full::SimdFloatMisc            0      0.00%     34.82% # attempts to use FU when none available
system.switch_cpus0.iq.fu_full::SimdFloatMult       338826      2.45%     37.26% # attempts to use FU when none available
system.switch_cpus0.iq.fu_full::SimdFloatMultAcc            0      0.00%     37.26% # attempts to use FU when none available
system.switch_cpus0.iq.fu_full::SimdFloatSqrt            0      0.00%     37.26% # attempts to use FU when none available
system.switch_cpus0.iq.fu_full::SimdReduceAdd            0      0.00%     37.26% # attempts to use FU when none available
system.switch_cpus0.iq.fu_full::SimdReduceAlu            0      0.00%     37.26% # attempts to use FU when none available
system.switch_cpus0.iq.fu_full::SimdReduceCmp            0      0.00%     37.26% # attempts to use FU when none available
system.switch_cpus0.iq.fu_full::SimdFloatReduceAdd            0      0.00%     37.26% # attempts to use FU when none available
system.switch_cpus0.iq.fu_full::SimdFloatReduceCmp            0      0.00%     37.26% # attempts to use FU when none available
system.switch_cpus0.iq.fu_full::SimdAes             0      0.00%     37.26% # attempts to use FU when none available
system.switch_cpus0.iq.fu_full::SimdAesMix            0      0.00%     37.26% # attempts to use FU when none available
system.switch_cpus0.iq.fu_full::SimdSha1Hash            0      0.00%     37.26% # attempts to use FU when none available
system.switch_cpus0.iq.fu_full::SimdSha1Hash2            0      0.00%     37.26% # attempts to use FU when none available
system.switch_cpus0.iq.fu_full::SimdSha256Hash            0      0.00%     37.26% # attempts to use FU when none available
system.switch_cpus0.iq.fu_full::SimdSha256Hash2            0      0.00%     37.26% # attempts to use FU when none available
system.switch_cpus0.iq.fu_full::SimdShaSigma2            0      0.00%     37.26% # attempts to use FU when none available
system.switch_cpus0.iq.fu_full::SimdShaSigma3            0      0.00%     37.26% # attempts to use FU when none available
system.switch_cpus0.iq.fu_full::SimdPredAlu            0      0.00%     37.26% # attempts to use FU when none available
system.switch_cpus0.iq.fu_full::MemRead       3353467     24.21%     61.47% # attempts to use FU when none available
system.switch_cpus0.iq.fu_full::MemWrite      1159705      8.37%     69.84% # attempts to use FU when none available
system.switch_cpus0.iq.fu_full::FloatMemRead      3613890     26.09%     95.93% # attempts to use FU when none available
system.switch_cpus0.iq.fu_full::FloatMemWrite       563110      4.07%    100.00% # attempts to use FU when none available
system.switch_cpus0.iq.fu_full::IprAccess            0      0.00%    100.00% # attempts to use FU when none available
system.switch_cpus0.iq.fu_full::InstPrefetch            0      0.00%    100.00% # attempts to use FU when none available
system.switch_cpus0.iq.int_alu_accesses     391333190                       # Number of integer alu accesses
system.switch_cpus0.iq.int_inst_queue_reads    879770138                       # Number of integer instruction queue reads
system.switch_cpus0.iq.int_inst_queue_wakeup_accesses    381819984                       # Number of integer instruction queue wakeup accesses
system.switch_cpus0.iq.int_inst_queue_writes    447005016                       # Number of integer instruction queue writes
system.switch_cpus0.iq.iqInstsAdded         503188582                       # Number of instructions added to the IQ (excludes non-spec)
system.switch_cpus0.iq.iqInstsIssued        483557186                       # Number of instructions issued
system.switch_cpus0.iq.iqNonSpecInstsAdded           16                       # Number of non-speculative instructions added to the IQ
system.switch_cpus0.iq.iqSquashedInstsExamined     52595729                       # Number of squashed instructions iterated over during squash; mainly for profiling
system.switch_cpus0.iq.iqSquashedInstsIssued       810931                       # Number of squashed instructions issued
system.switch_cpus0.iq.iqSquashedNonSpecRemoved           12                       # Number of squashed non-spec instructions that were removed
system.switch_cpus0.iq.iqSquashedOperandsExamined     75309432                       # Number of squashed operands that are examined and possibly removed from graph
system.switch_cpus0.iq.issued_per_cycle::samples     99948953                       # Number of insts issued each cycle
system.switch_cpus0.iq.issued_per_cycle::mean     4.838042                       # Number of insts issued each cycle
system.switch_cpus0.iq.issued_per_cycle::stdev     2.689567                       # Number of insts issued each cycle
system.switch_cpus0.iq.issued_per_cycle::underflows            0      0.00%      0.00% # Number of insts issued each cycle
system.switch_cpus0.iq.issued_per_cycle::0     13956476     13.96%     13.96% # Number of insts issued each cycle
system.switch_cpus0.iq.issued_per_cycle::1      2661514      2.66%     16.63% # Number of insts issued each cycle
system.switch_cpus0.iq.issued_per_cycle::2      5168445      5.17%     21.80% # Number of insts issued each cycle
system.switch_cpus0.iq.issued_per_cycle::3      6926335      6.93%     28.73% # Number of insts issued each cycle
system.switch_cpus0.iq.issued_per_cycle::4      9599164      9.60%     38.33% # Number of insts issued each cycle
system.switch_cpus0.iq.issued_per_cycle::5     12323569     12.33%     50.66% # Number of insts issued each cycle
system.switch_cpus0.iq.issued_per_cycle::6     15101809     15.11%     65.77% # Number of insts issued each cycle
system.switch_cpus0.iq.issued_per_cycle::7     14538706     14.55%     80.32% # Number of insts issued each cycle
system.switch_cpus0.iq.issued_per_cycle::8     19672935     19.68%    100.00% # Number of insts issued each cycle
system.switch_cpus0.iq.issued_per_cycle::overflows            0      0.00%    100.00% # Number of insts issued each cycle
system.switch_cpus0.iq.issued_per_cycle::min_value            0                       # Number of insts issued each cycle
system.switch_cpus0.iq.issued_per_cycle::max_value            8                       # Number of insts issued each cycle
system.switch_cpus0.iq.issued_per_cycle::total     99948953                       # Number of insts issued each cycle
system.switch_cpus0.iq.rate                  4.833381                       # Inst issue rate
system.switch_cpus0.iq.vec_alu_accesses             0                       # Number of vector alu accesses
system.switch_cpus0.iq.vec_inst_queue_reads            0                       # Number of vector instruction queue reads
system.switch_cpus0.iq.vec_inst_queue_wakeup_accesses            0                       # Number of vector instruction queue wakeup accesses
system.switch_cpus0.iq.vec_inst_queue_writes            0                       # Number of vector instruction queue writes
system.switch_cpus0.memDep0.conflictingLoads      5431057                       # Number of conflicting loads.
system.switch_cpus0.memDep0.conflictingStores      2514390                       # Number of conflicting stores.
system.switch_cpus0.memDep0.insertedLoads    102921266                       # Number of loads inserted to the mem dependence unit.
system.switch_cpus0.memDep0.insertedStores     45578560                       # Number of stores inserted to the mem dependence unit.
system.switch_cpus0.misc_regfile_reads      236723768                       # number of misc regfile reads
system.switch_cpus0.misc_regfile_writes             9                       # number of misc regfile writes
system.switch_cpus0.numCycles               100045335                       # number of cpu cycles simulated
system.switch_cpus0.numWorkItemsCompleted            0                       # number of work items this cpu completed
system.switch_cpus0.numWorkItemsStarted             0                       # number of work items this cpu started
system.switch_cpus0.timesIdled                    380                       # Number of times that the entire CPU went into an idle state and unscheduled itself
system.switch_cpus1.cc_regfile_reads         50430306                       # number of cc regfile reads
system.switch_cpus1.cc_regfile_writes        40671649                       # number of cc regfile writes
system.switch_cpus1.committedInsts           99333331                       # Number of Instructions Simulated
system.switch_cpus1.committedOps            158665467                       # Number of Ops (including micro ops) Simulated
system.switch_cpus1.cpi                      1.007168                       # CPI: Cycles Per Instruction
system.switch_cpus1.cpi_total                1.007168                       # CPI: Total CPI of All Threads
system.switch_cpus1.fp_regfile_reads        121727342                       # number of floating regfile reads
system.switch_cpus1.fp_regfile_writes        61192056                       # number of floating regfile writes
system.switch_cpus1.idleCycles                  44288                       # Total number of cycles that the CPU has spent unscheduled due to idling
system.switch_cpus1.iew.branchMispredicts         9369                       # Number of branch mispredicts detected at execute
system.switch_cpus1.iew.exec_branches        11242094                       # Number of branches executed
system.switch_cpus1.iew.exec_nop                    0                       # number of nop insts executed
system.switch_cpus1.iew.exec_rate            1.587236                       # Inst execution rate
system.switch_cpus1.iew.exec_refs            36679556                       # number of memory reference insts executed
system.switch_cpus1.iew.exec_stores          10481394                       # Number of stores executed
system.switch_cpus1.iew.exec_swp                    0                       # number of swp insts executed
system.switch_cpus1.iew.iewBlockCycles       19889884                       # Number of cycles IEW is blocking
system.switch_cpus1.iew.iewDispLoadInsts     26217776                       # Number of dispatched load instructions
system.switch_cpus1.iew.iewDispNonSpecInsts            3                       # Number of dispatched non-speculative instructions
system.switch_cpus1.iew.iewDispSquashedInsts          526                       # Number of squashed instructions skipped by dispatch
system.switch_cpus1.iew.iewDispStoreInsts     10499959                       # Number of dispatched store instructions
system.switch_cpus1.iew.iewDispatchedInsts    158925184                       # Number of instructions dispatched to IQ
system.switch_cpus1.iew.iewExecLoadInsts     26198162                       # Number of load instructions executed
system.switch_cpus1.iew.iewExecSquashedInsts        22709                       # Number of squashed instructions skipped in execute
system.switch_cpus1.iew.iewExecutedInsts    158795594                       # Number of executed instructions
system.switch_cpus1.iew.iewIQFullEvents         89044                       # Number of times the IQ has become full, causing a stall
system.switch_cpus1.iew.iewIdleCycles               0                       # Number of cycles IEW is idle
system.switch_cpus1.iew.iewLSQFullEvents     11018417                       # Number of times the LSQ has become full, causing a stall
system.switch_cpus1.iew.iewSquashCycles          9896                       # Number of cycles IEW is squashing
system.switch_cpus1.iew.iewUnblockCycles     11176230                       # Number of cycles IEW is unblocking
system.switch_cpus1.iew.memOrderViolationEvents          653                       # Number of memory order violations
system.switch_cpus1.iew.predictedNotTakenIncorrect         1783                       # Number of branches that were predicted not taken incorrectly
system.switch_cpus1.iew.predictedTakenIncorrect         7586                       # Number of branches that were predicted taken incorrectly
system.switch_cpus1.iew.wb_consumers        196735665                       # num instructions consuming a value
system.switch_cpus1.iew.wb_count            158770994                       # cumulative count of insts written-back
system.switch_cpus1.iew.wb_fanout            0.607159                       # average fanout of values written-back
system.switch_cpus1.iew.wb_producers        119449801                       # num instructions producing a value
system.switch_cpus1.iew.wb_rate              1.586990                       # insts written-back per cycle
system.switch_cpus1.iew.wb_sent             158782073                       # cumulative count of insts sent to commit
system.switch_cpus1.int_regfile_reads       155165435                       # number of integer regfile reads
system.switch_cpus1.int_regfile_writes       73350527                       # number of integer regfile writes
system.switch_cpus1.ipc                      0.992883                       # IPC: Instructions Per Cycle
system.switch_cpus1.ipc_total                0.992883                       # IPC: Total IPC of All Threads
system.switch_cpus1.iq.FU_type_0::No_OpClass         7705      0.00%      0.00% # Type of FU issued
system.switch_cpus1.iq.FU_type_0::IntAlu     85849894     54.06%     54.06% # Type of FU issued
system.switch_cpus1.iq.FU_type_0::IntMult         2922      0.00%     54.06% # Type of FU issued
system.switch_cpus1.iq.FU_type_0::IntDiv            0      0.00%     54.06% # Type of FU issued
system.switch_cpus1.iq.FU_type_0::FloatAdd      2957319      1.86%     55.92% # Type of FU issued
system.switch_cpus1.iq.FU_type_0::FloatCmp            0      0.00%     55.92% # Type of FU issued
system.switch_cpus1.iq.FU_type_0::FloatCvt            0      0.00%     55.92% # Type of FU issued
system.switch_cpus1.iq.FU_type_0::FloatMult            0      0.00%     55.92% # Type of FU issued
system.switch_cpus1.iq.FU_type_0::FloatMultAcc            0      0.00%     55.92% # Type of FU issued
system.switch_cpus1.iq.FU_type_0::FloatDiv            0      0.00%     55.92% # Type of FU issued
system.switch_cpus1.iq.FU_type_0::FloatMisc            0      0.00%     55.92% # Type of FU issued
system.switch_cpus1.iq.FU_type_0::FloatSqrt            0      0.00%     55.92% # Type of FU issued
system.switch_cpus1.iq.FU_type_0::SimdAdd            0      0.00%     55.92% # Type of FU issued
system.switch_cpus1.iq.FU_type_0::SimdAddAcc            0      0.00%     55.92% # Type of FU issued
system.switch_cpus1.iq.FU_type_0::SimdAlu      3514679      2.21%     58.14% # Type of FU issued
system.switch_cpus1.iq.FU_type_0::SimdCmp            0      0.00%     58.14% # Type of FU issued
system.switch_cpus1.iq.FU_type_0::SimdCvt            0      0.00%     58.14% # Type of FU issued
system.switch_cpus1.iq.FU_type_0::SimdMisc      1776512      1.12%     59.26% # Type of FU issued
system.switch_cpus1.iq.FU_type_0::SimdMult            0      0.00%     59.26% # Type of FU issued
system.switch_cpus1.iq.FU_type_0::SimdMultAcc            0      0.00%     59.26% # Type of FU issued
system.switch_cpus1.iq.FU_type_0::SimdShift            0      0.00%     59.26% # Type of FU issued
system.switch_cpus1.iq.FU_type_0::SimdShiftAcc            0      0.00%     59.26% # Type of FU issued
system.switch_cpus1.iq.FU_type_0::SimdDiv            0      0.00%     59.26% # Type of FU issued
system.switch_cpus1.iq.FU_type_0::SimdSqrt            0      0.00%     59.26% # Type of FU issued
system.switch_cpus1.iq.FU_type_0::SimdFloatAdd     11301517      7.12%     66.37% # Type of FU issued
system.switch_cpus1.iq.FU_type_0::SimdFloatAlu            0      0.00%     66.37% # Type of FU issued
system.switch_cpus1.iq.FU_type_0::SimdFloatCmp       376832      0.24%     66.61% # Type of FU issued
system.switch_cpus1.iq.FU_type_0::SimdFloatCvt      2510394      1.58%     68.19% # Type of FU issued
system.switch_cpus1.iq.FU_type_0::SimdFloatDiv      2408951      1.52%     69.71% # Type of FU issued
system.switch_cpus1.iq.FU_type_0::SimdFloatMisc            0      0.00%     69.71% # Type of FU issued
system.switch_cpus1.iq.FU_type_0::SimdFloatMult     11010522      6.93%     76.64% # Type of FU issued
system.switch_cpus1.iq.FU_type_0::SimdFloatMultAcc            0      0.00%     76.64% # Type of FU issued
system.switch_cpus1.iq.FU_type_0::SimdFloatSqrt       409602      0.26%     76.90% # Type of FU issued
system.switch_cpus1.iq.FU_type_0::SimdReduceAdd            0      0.00%     76.90% # Type of FU issued
system.switch_cpus1.iq.FU_type_0::SimdReduceAlu            0      0.00%     76.90% # Type of FU issued
system.switch_cpus1.iq.FU_type_0::SimdReduceCmp            0      0.00%     76.90% # Type of FU issued
system.switch_cpus1.iq.FU_type_0::SimdFloatReduceAdd            0      0.00%     76.90% # Type of FU issued
system.switch_cpus1.iq.FU_type_0::SimdFloatReduceCmp            0      0.00%     76.90% # Type of FU issued
[...]
system.switch_cpus3.commit.numCommittedDist::0     17249994     18.39%     18.39% # Number of insts commited each cycle
system.switch_cpus3.commit.numCommittedDist::1      8983749      9.58%     27.97% # Number of insts commited each cycle
system.switch_cpus3.commit.numCommittedDist::2     12759603     13.60%     41.57% # Number of insts commited each cycle
system.switch_cpus3.commit.numCommittedDist::3      5830395      6.22%     47.78% # Number of insts commited each cycle
system.switch_cpus3.commit.numCommittedDist::4      9837880     10.49%     58.27% # Number of insts commited each cycle
system.switch_cpus3.commit.numCommittedDist::5      3727663      3.97%     62.25% # Number of insts commited each cycle
system.switch_cpus3.commit.numCommittedDist::6      1867933      1.99%     64.24% # Number of insts commited each cycle
system.switch_cpus3.commit.numCommittedDist::7       691388      0.74%     64.97% # Number of insts commited each cycle
system.switch_cpus3.commit.numCommittedDist::8     32856473     35.03%    100.00% # Number of insts commited each cycle
system.switch_cpus3.commit.numCommittedDist::overflows            0      0.00%    100.00% # Number of insts commited each cycle
system.switch_cpus3.commit.numCommittedDist::min_value            0                       # Number of insts commited each cycle
system.switch_cpus3.commit.numCommittedDist::max_value            8                       # Number of insts commited each cycle
system.switch_cpus3.commit.numCommittedDist::total     93805078                       # Number of insts commited each cycle
system.switch_cpus3.commit.instsCommitted    208353348                       # Number of instructions committed
system.switch_cpus3.commit.opsCommitted     388883073                       # Number of ops (including micro ops) committed
system.switch_cpus3.commit.memRefs           62853506                       # Number of memory references committed
system.switch_cpus3.commit.loads             53689002                       # Number of loads committed
system.switch_cpus3.commit.amos                     0                       # Number of atomic instructions committed
system.switch_cpus3.commit.membars                  0                       # Number of memory barriers committed
system.switch_cpus3.commit.branches          31617143                       # Number of branches committed
system.switch_cpus3.commit.vector                   0                       # Number of committed Vector instructions.
system.switch_cpus3.commit.floating          10139954                       # Number of committed floating point instructions.
system.switch_cpus3.commit.integer          382473944                       # Number of committed integer instructions.
system.switch_cpus3.commit.functionCalls       317369                       # Number of function calls committed.
system.switch_cpus3.commit.committedInstType_0::No_OpClass      1678651      0.43%      0.43% # Class of committed instruction
system.switch_cpus3.commit.committedInstType_0::IntAlu    302713076     77.84%     78.27% # Class of committed instruction
system.switch_cpus3.commit.committedInstType_0::IntMult     18224660      4.69%     82.96% # Class of committed instruction
system.switch_cpus3.commit.committedInstType_0::IntDiv        31815      0.01%     82.97% # Class of committed instruction
system.switch_cpus3.commit.committedInstType_0::FloatAdd       405142      0.10%     83.07% # Class of committed instruction
system.switch_cpus3.commit.committedInstType_0::FloatCmp            0      0.00%     83.07% # Class of committed instruction
system.switch_cpus3.commit.committedInstType_0::FloatCvt            0      0.00%     83.07% # Class of committed instruction
system.switch_cpus3.commit.committedInstType_0::FloatMult            0      0.00%     83.07% # Class of committed instruction
system.switch_cpus3.commit.committedInstType_0::FloatMultAcc            0      0.00%     83.07% # Class of committed instruction
system.switch_cpus3.commit.committedInstType_0::FloatDiv            0      0.00%     83.07% # Class of committed instruction
system.switch_cpus3.commit.committedInstType_0::FloatMisc            0      0.00%     83.07% # Class of committed instruction
system.switch_cpus3.commit.committedInstType_0::FloatSqrt            0      0.00%     83.07% # Class of committed instruction
system.switch_cpus3.commit.committedInstType_0::SimdAdd            0      0.00%     83.07% # Class of committed instruction
system.switch_cpus3.commit.committedInstType_0::SimdAddAcc            0      0.00%     83.07% # Class of committed instruction
system.switch_cpus3.commit.committedInstType_0::SimdAlu       387294      0.10%     83.17% # Class of committed instruction
system.switch_cpus3.commit.committedInstType_0::SimdCmp            0      0.00%     83.17% # Class of committed instruction
system.switch_cpus3.commit.committedInstType_0::SimdCvt            0      0.00%     83.17% # Class of committed instruction
system.switch_cpus3.commit.committedInstType_0::SimdMisc       585703      0.15%     83.32% # Class of committed instruction
system.switch_cpus3.commit.committedInstType_0::SimdMult            0      0.00%     83.32% # Class of committed instruction
system.switch_cpus3.commit.committedInstType_0::SimdMultAcc            0      0.00%     83.32% # Class of committed instruction
system.switch_cpus3.commit.committedInstType_0::SimdShift            0      0.00%     83.32% # Class of committed instruction
system.switch_cpus3.commit.committedInstType_0::SimdShiftAcc            0      0.00%     83.32% # Class of committed instruction
system.switch_cpus3.commit.committedInstType_0::SimdDiv            0      0.00%     83.32% # Class of committed instruction
system.switch_cpus3.commit.committedInstType_0::SimdSqrt            0      0.00%     83.32% # Class of committed instruction
system.switch_cpus3.commit.committedInstType_0::SimdFloatAdd       697954      0.18%     83.50% # Class of committed instruction
system.switch_cpus3.commit.committedInstType_0::SimdFloatAlu            0      0.00%     83.50% # Class of committed instruction
system.switch_cpus3.commit.committedInstType_0::SimdFloatCmp            0      0.00%     83.50% # Class of committed instruction
system.switch_cpus3.commit.committedInstType_0::SimdFloatCvt       371790      0.10%     83.60% # Class of committed instruction
system.switch_cpus3.commit.committedInstType_0::SimdFloatDiv       176582      0.05%     83.64% # Class of committed instruction
system.switch_cpus3.commit.committedInstType_0::SimdFloatMisc            0      0.00%     83.64% # Class of committed instruction
system.switch_cpus3.commit.committedInstType_0::SimdFloatMult       756451      0.19%     83.84% # Class of committed instruction
system.switch_cpus3.commit.committedInstType_0::SimdFloatMultAcc            0      0.00%     83.84% # Class of committed instruction
system.switch_cpus3.commit.committedInstType_0::SimdFloatSqrt          449      0.00%     83.84% # Class of committed instruction
system.switch_cpus3.commit.committedInstType_0::SimdReduceAdd            0      0.00%     83.84% # Class of committed instruction
system.switch_cpus3.commit.committedInstType_0::SimdReduceAlu            0      0.00%     83.84% # Class of committed instruction
system.switch_cpus3.commit.committedInstType_0::SimdReduceCmp            0      0.00%     83.84% # Class of committed instruction
system.switch_cpus3.commit.committedInstType_0::SimdFloatReduceAdd            0      0.00%     83.84% # Class of committed instruction
system.switch_cpus3.commit.committedInstType_0::SimdFloatReduceCmp            0      0.00%     83.84% # Class of committed instruction
system.switch_cpus3.commit.committedInstType_0::SimdAes            0      0.00%     83.84% # Class of committed instruction
system.switch_cpus3.commit.committedInstType_0::SimdAesMix            0      0.00%     83.84% # Class of committed instruction
system.switch_cpus3.commit.committedInstType_0::SimdSha1Hash            0      0.00%     83.84% # Class of committed instruction
system.switch_cpus3.commit.committedInstType_0::SimdSha1Hash2            0      0.00%     83.84% # Class of committed instruction
system.switch_cpus3.commit.committedInstType_0::SimdSha256Hash            0      0.00%     83.84% # Class of committed instruction
system.switch_cpus3.commit.committedInstType_0::SimdSha256Hash2            0      0.00%     83.84% # Class of committed instruction
system.switch_cpus3.commit.committedInstType_0::SimdShaSigma2            0      0.00%     83.84% # Class of committed instruction
system.switch_cpus3.commit.committedInstType_0::SimdShaSigma3            0      0.00%     83.84% # Class of committed instruction
system.switch_cpus3.commit.committedInstType_0::SimdPredAlu            0      0.00%     83.84% # Class of committed instruction
system.switch_cpus3.commit.committedInstType_0::MemRead     51149833     13.15%     96.99% # Class of committed instruction
system.switch_cpus3.commit.committedInstType_0::MemWrite      5882666      1.51%     98.50% # Class of committed instruction
system.switch_cpus3.commit.committedInstType_0::FloatMemRead      2539169      0.65%     99.16% # Class of committed instruction
system.switch_cpus3.commit.committedInstType_0::FloatMemWrite      3281838      0.84%    100.00% # Class of committed instruction
system.switch_cpus3.commit.committedInstType_0::IprAccess            0      0.00%    100.00% # Class of committed instruction
system.switch_cpus3.commit.committedInstType_0::InstPrefetch            0      0.00%    100.00% # Class of committed instruction
system.switch_cpus3.commit.committedInstType_0::total    388883073                       # Class of committed instruction
system.switch_cpus3.commit.commitEligibleSamples     32856473                       # number cycles where commit BW limit reached
system.switch_cpus3.decode.idleCycles         6000897                       # Number of cycles decode is idle
system.switch_cpus3.decode.blockedCycles     17709993                       # Number of cycles decode is blocked
system.switch_cpus3.decode.runCycles         68743111                       # Number of cycles decode is running
system.switch_cpus3.decode.unblockCycles      5879784                       # Number of cycles decode is unblocking
system.switch_cpus3.decode.squashCycles       1664906                       # Number of cycles decode is squashing
system.switch_cpus3.decode.branchResolved     26395625                       # Number of times decode resolved a  branch
system.switch_cpus3.decode.branchMispred        88807                       # Number of times decode detected a branch misprediction
system.switch_cpus3.decode.decodedInsts     461166944                       # Number of instructions handled by decode
system.switch_cpus3.decode.squashedInsts       559918                       # Number of squashed instructions handled by decode
system.switch_cpus3.dtb.rdAccesses           57554552                       # TLB accesses on read requests
system.switch_cpus3.dtb.wrAccesses            9555687                       # TLB accesses on write requests
system.switch_cpus3.dtb.rdMisses                  138                       # TLB misses on read requests
system.switch_cpus3.dtb.wrMisses                  442                       # TLB misses on write requests
system.switch_cpus3.dtb.walker.power_state.pwrStateResidencyTicks::UNDEFINED 15684572184210                       # Cumulative time (in ticks) in various power states
system.switch_cpus3.fetch.icacheStallCycles      1216455                       # Number of cycles fetch is stalled on an Icache miss
system.switch_cpus3.fetch.insts             259046584                       # Number of instructions fetch has processed
system.switch_cpus3.fetch.branches           39721707                       # Number of branches that fetch encountered
system.switch_cpus3.fetch.predictedBranches     28137389                       # Number of branches that fetch has predicted taken
system.switch_cpus3.fetch.cycles             97031333                       # Number of cycles fetch has run and was not squashing or blocked
system.switch_cpus3.fetch.squashCycles        3501766                       # Number of cycles fetch has spent squashing
system.switch_cpus3.fetch.miscStallCycles            2                       # Number of cycles fetch has spent waiting on interrupts,or bad addresses, or out of MSHRs
system.switch_cpus3.fetch.pendingTrapStallCycles           21                       # Number of stall cycles due to pending traps
system.switch_cpus3.fetch.cacheLines         39793579                       # Number of cache lines fetched
system.switch_cpus3.fetch.icacheSquashes          159                       # Number of outstanding Icache misses that were squashed
system.switch_cpus3.fetch.nisnDist::samples     99998694                       # Number of instructions fetched each cycle (Total)
system.switch_cpus3.fetch.nisnDist::mean     4.804108                       # Number of instructions fetched each cycle (Total)
system.switch_cpus3.fetch.nisnDist::stdev     3.076091                       # Number of instructions fetched each cycle (Total)
system.switch_cpus3.fetch.nisnDist::underflows            0      0.00%      0.00% # Number of instructions fetched each cycle (Total)
system.switch_cpus3.fetch.nisnDist::0        15660209     15.66%     15.66% # Number of instructions fetched each cycle (Total)
system.switch_cpus3.fetch.nisnDist::1         1645634      1.65%     17.31% # Number of instructions fetched each cycle (Total)
system.switch_cpus3.fetch.nisnDist::2        15855396     15.86%     33.16% # Number of instructions fetched each cycle (Total)
system.switch_cpus3.fetch.nisnDist::3         1778797      1.78%     34.94% # Number of instructions fetched each cycle (Total)
system.switch_cpus3.fetch.nisnDist::4        12440452     12.44%     47.38% # Number of instructions fetched each cycle (Total)
system.switch_cpus3.fetch.nisnDist::5         6368491      6.37%     53.75% # Number of instructions fetched each cycle (Total)
system.switch_cpus3.fetch.nisnDist::6         1586521      1.59%     55.34% # Number of instructions fetched each cycle (Total)
system.switch_cpus3.fetch.nisnDist::7         6717217      6.72%     62.05% # Number of instructions fetched each cycle (Total)
system.switch_cpus3.fetch.nisnDist::8        37945977     37.95%    100.00% # Number of instructions fetched each cycle (Total)
system.switch_cpus3.fetch.nisnDist::overflows            0      0.00%    100.00% # Number of instructions fetched each cycle (Total)
system.switch_cpus3.fetch.nisnDist::min_value            0                       # Number of instructions fetched each cycle (Total)
system.switch_cpus3.fetch.nisnDist::max_value            8                       # Number of instructions fetched each cycle (Total)
system.switch_cpus3.fetch.nisnDist::total     99998694                       # Number of instructions fetched each cycle (Total)
system.switch_cpus3.fetch.branchRate         0.397037                       # Number of branch fetches per cycle
system.switch_cpus3.fetch.rate               2.589292                       # Number of inst fetches per cycle
system.switch_cpus3.itb.rdAccesses                  0                       # TLB accesses on read requests
system.switch_cpus3.itb.wrAccesses           39793582                       # TLB accesses on write requests
system.switch_cpus3.itb.rdMisses                    0                       # TLB misses on read requests
system.switch_cpus3.itb.wrMisses                   17                       # TLB misses on write requests
system.switch_cpus3.itb.walker.power_state.pwrStateResidencyTicks::UNDEFINED 15684572184210                       # Cumulative time (in ticks) in various power states
system.switch_cpus3.lsq0.forwLoads             787485                       # Number of loads that had data forwarded from stores
system.switch_cpus3.lsq0.squashedLoads        5456437                       # Number of loads squashed
system.switch_cpus3.lsq0.ignoredResponses         1025                       # Number of memory responses ignored because the instruction is squashed
system.switch_cpus3.lsq0.memOrderViolation        18165                       # Number of memory ordering violations
system.switch_cpus3.lsq0.squashedStores       1443047                       # Number of stores squashed
system.switch_cpus3.lsq0.rescheduledLoads            1                       # Number of loads that were rescheduled
system.switch_cpus3.lsq0.blockedByCache             0                       # Number of times an access to memory failed due to the cache being blocked
system.switch_cpus3.power_state.pwrStateResidencyTicks::OFF  33315106878                       # Cumulative time (in ticks) in various power states
system.switch_cpus3.rename.squashCycles       1664906                       # Number of cycles rename is squashing
system.switch_cpus3.rename.idleCycles         8844850                       # Number of cycles rename is idle
system.switch_cpus3.rename.blockCycles        7773569                       # Number of cycles rename is blocking
system.switch_cpus3.rename.serializeStallCycles            0                       # count of cycles rename stalledfor serializing inst
system.switch_cpus3.rename.runCycles         71216782                       # Number of cycles rename is running
system.switch_cpus3.rename.unblockCycles     10498584                       # Number of cycles rename is unblocking
system.switch_cpus3.rename.renamedInsts     449558757                       # Number of instructions processed by rename
system.switch_cpus3.rename.ROBFullEvents       184994                       # Number of times rename has blocked due to ROB full
system.switch_cpus3.rename.IQFullEvents       2019832                       # Number of times rename has blocked due to IQ full
system.switch_cpus3.rename.LQFullEvents        581573                       # Number of times rename has blocked due to LQ full
system.switch_cpus3.rename.SQFullEvents       6154744                       # Number of times rename has blocked due to SQ full
system.switch_cpus3.rename.renamedOperands    682459350                       # Number of destination operands rename has renamed
system.switch_cpus3.rename.lookups          985536242                       # Number of register rename lookups that rename has made
system.switch_cpus3.rename.intLookups       645337757                       # Number of integer rename lookups
system.switch_cpus3.rename.fpLookups         13675159                       # Number of floating rename lookups
system.switch_cpus3.rename.committedMaps    593488645                       # Number of HB maps that are committed
system.switch_cpus3.rename.undoneMaps        88970605                       # Number of HB maps that are undone due to squashing
system.switch_cpus3.rename.serializing              0                       # count of serializing insts renamed
system.switch_cpus3.rename.tempSerializing            0                       # count of temporary serializing insts renamed
system.switch_cpus3.rename.skidInsts         16107779                       # count of insts added to the skid buffer
system.switch_cpus3.rob.reads               491771022                       # The number of ROB reads
system.switch_cpus3.rob.writes              867854721                       # The number of ROB writes
system.switch_cpus3.thread0.numInsts        208353348                       # Number of Instructions committed
system.switch_cpus3.thread0.numOps          388883073                       # Number of Ops committed
system.switch_cpus3.thread0.numMemRefs              0                       # Number of Memory References
system.voltage_domain.voltage                       1                       # Voltage in Volts

---------- End Simulation Statistics   ----------
