Command line:
./runscript_pride.sh mix24 RFM10.BR2.4C 4 2017 --rh_defense --rh_mitigation=RFM --rh_rfm_per_trefi=10 --rh_rfm_blast_radius=2 --rh_rfm_maxacts_per_trefi=79
Global frequency set at 1000000000000 ticks per second
RFM details - rfm_act_threshold: 7, blast_radius: 2, delay_per_rfm: 175000 ps. sample_rate: 0.125000
RH Defense config: RFM, Bus Delay: 0, rfms_per_trefi: 10, rfm_act_threshold: 7, blast_radius: 2,rfm_delay_per_act: 45000 ps.
DRAM config: RowsPerBank: 65536, BanksPerRank: 32, RanksPerChannel: 1
warn: Sockets disabled, not accepting gdb connections
warn: CoherentXBar system.cpu0.mmucache.mmubus has no snooping ports attached!
warn: CoherentXBar system.cpu1.mmucache.mmubus has no snooping ports attached!
warn: CoherentXBar system.cpu2.mmucache.mmubus has no snooping ports attached!
warn: CoherentXBar system.cpu3.mmucache.mmubus has no snooping ports attached!
warn: Checkpoints for file descriptors currently do not work.
warn: Checkpoints for file descriptors currently do not work.
warn: Checkpoints for file descriptors currently do not work.
warn: Checkpoints for file descriptors currently do not work.
gem5 Simulator System.  http://gem5.org
gem5 is copyrighted software; use the --copyright option for details.

gem5 version 20.1.0.5
gem5 compiled Jul 12 2024 12:42:38
gem5 started Jul 22 2024 19:09:38
gem5 executing on a07dda8b130c, pid 90127
command line: /home/user/PrIDE/performance/gem5/build/X86/gem5.opt --outdir=/home/user/PrIDE/performance/gem5/stats/pride_multiprogram_16GBmem_250Mn.SPEC2017.C4/RFM10.BR2.4C/mix24 /home/user/PrIDE/performance/gem5/configs/example/se_rq_spec_config_multicore.py --redirects /lib64=/home/utils/gcc-6.2.0/lib64 --benchmark=mix24 --benchmark_stdout=/home/user/PrIDE/performance/gem5/stats/pride_multiprogram_16GBmem_250Mn.SPEC2017.C4/RFM10.BR2.4C/mix24/mix24.out --benchmark_stderr=/home/user/PrIDE/performance/gem5/stats/pride_multiprogram_16GBmem_250Mn.SPEC2017.C4/RFM10.BR2.4C/mix24/mix24.err --spec-version=2017 --rh_defense --rh_mitigation=RFM --rh_rfm_per_trefi=10 --rh_rfm_blast_radius=2 --rh_rfm_maxacts_per_trefi=79 --num-cpus=4 --mem-size=16GB --mem-type=DDR5_2400_32x4 --mem-ranks=1 --checkpoint-dir=/home/user/PrIDE/performance/gem5/cpts/multiprogram_16GBmem_25Bn.SPEC2017.C4/mix24-1-ref-x86 --checkpoint-restore=25000000000 --at-instruction --cpu-type DerivO3CPU --caches --l2cache --l1d_size=32kB --l1i_size=32kB --l2_size=256kB --l1d_assoc=8 --l1i_assoc=8 --l2_assoc=16 --maxinsts=250000000 --prog-interval=300Hz

info: Standard input is not a terminal, disabling listeners.
Benchmark- 0   povray
Selected benchmark
--> povray
CMD: ['/opt/spec2017/benchspec/CPU/511.povray_r/run/run_base_refrate_gem5_se-m64.0000/povray_r_base.gem5_se-m64', '/opt/spec2017/benchspec/CPU/511.povray_r/run/run_base_refrate_gem5_se-m64.0000/SPEC-benchmark-ref.ini']
CWD: /opt/spec2017/benchspec/CPU/511.povray_r/run/run_base_refrate_gem5_se-m64.0000/
Process stdout file: /home/user/PrIDE/performance/gem5/stats/pride_multiprogram_16GBmem_250Mn.SPEC2017.C4/RFM10.BR2.4C/mix24/mix24.out_0
Process stderr file: /home/user/PrIDE/performance/gem5/stats/pride_multiprogram_16GBmem_250Mn.SPEC2017.C4/RFM10.BR2.4C/mix24/mix24.err_0
Benchmark- 1   x264
Selected benchmark
--> x264
CMD: ['/opt/spec2017/benchspec/CPU/525.x264_r/run/run_base_refrate_gem5_se-m64.0000/x264_r_base.gem5_se-m64', '--pass', '1', '--stats', '/opt/spec2017/benchspec/CPU/525.x264_r/run/run_base_refrate_gem5_se-m64.0000/x264_stats.log', '--bitrate', '1000', '--frames', '1000', '-o', '/opt/spec2017/benchspec/CPU/525.x264_r/run/run_base_refrate_gem5_se-m64.0000/BuckBunny_New.264', '/opt/spec2017/benchspec/CPU/525.x264_r/run/run_base_refrate_gem5_se-m64.0000/BuckBunny.yuv', '1280x720']
CWD: /opt/spec2017/benchspec/CPU/525.x264_r/run/run_base_refrate_gem5_se-m64.0000/
Process stdout file: /home/user/PrIDE/performance/gem5/stats/pride_multiprogram_16GBmem_250Mn.SPEC2017.C4/RFM10.BR2.4C/mix24/mix24.out_1
Process stderr file: /home/user/PrIDE/performance/gem5/stats/pride_multiprogram_16GBmem_250Mn.SPEC2017.C4/RFM10.BR2.4C/mix24/mix24.err_1
Benchmark- 2   nab
Selected benchmark
--> nab
CMD: ['/opt/spec2017/benchspec/CPU/544.nab_r/run/run_base_refrate_gem5_se-m64.0000/nab_r_base.gem5_se-m64', '1am0', '1122214447', '122']
CWD: /opt/spec2017/benchspec/CPU/544.nab_r/run/run_base_refrate_gem5_se-m64.0000/
Process stdout file: /home/user/PrIDE/performance/gem5/stats/pride_multiprogram_16GBmem_250Mn.SPEC2017.C4/RFM10.BR2.4C/mix24/mix24.out_2
Process stderr file: /home/user/PrIDE/performance/gem5/stats/pride_multiprogram_16GBmem_250Mn.SPEC2017.C4/RFM10.BR2.4C/mix24/mix24.err_2
Benchmark- 3   deepsjeng
Selected benchmark
--> deepsjeng
CMD: ['/opt/spec2017/benchspec/CPU/531.deepsjeng_r/run/run_base_refrate_gem5_se-m64.0000/deepsjeng_r_base.gem5_se-m64', '/opt/spec2017/benchspec/CPU/531.deepsjeng_r/run/run_base_refrate_gem5_se-m64.0000/ref.txt']
CWD: /opt/spec2017/benchspec/CPU/531.deepsjeng_r/run/run_base_refrate_gem5_se-m64.0000/
Process stdout file: /home/user/PrIDE/performance/gem5/stats/pride_multiprogram_16GBmem_250Mn.SPEC2017.C4/RFM10.BR2.4C/mix24/mix24.out_3
Process stderr file: /home/user/PrIDE/performance/gem5/stats/pride_multiprogram_16GBmem_250Mn.SPEC2017.C4/RFM10.BR2.4C/mix24/mix24.err_3
Workload-0: 
['/opt/spec2017/benchspec/CPU/511.povray_r/run/run_base_refrate_gem5_se-m64.0000/povray_r_base.gem5_se-m64', '/opt/spec2017/benchspec/CPU/511.povray_r/run/run_base_refrate_gem5_se-m64.0000/SPEC-benchmark-ref.ini']
Workload-1: 
['/opt/spec2017/benchspec/CPU/525.x264_r/run/run_base_refrate_gem5_se-m64.0000/x264_r_base.gem5_se-m64', '--pass', '1', '--stats', '/opt/spec2017/benchspec/CPU/525.x264_r/run/run_base_refrate_gem5_se-m64.0000/x264_stats.log', '--bitrate', '1000', '--frames', '1000', '-o', '/opt/spec2017/benchspec/CPU/525.x264_r/run/run_base_refrate_gem5_se-m64.0000/BuckBunny_New.264', '/opt/spec2017/benchspec/CPU/525.x264_r/run/run_base_refrate_gem5_se-m64.0000/BuckBunny.yuv', '1280x720']
Workload-2: 
['/opt/spec2017/benchspec/CPU/544.nab_r/run/run_base_refrate_gem5_se-m64.0000/nab_r_base.gem5_se-m64', '1am0', '1122214447', '122']
Workload-3: 
['/opt/spec2017/benchspec/CPU/531.deepsjeng_r/run/run_base_refrate_gem5_se-m64.0000/deepsjeng_r_base.gem5_se-m64', '/opt/spec2017/benchspec/CPU/531.deepsjeng_r/run/run_base_refrate_gem5_se-m64.0000/ref.txt']
defense_enable:  True  detector:  MG  mitigation:  RFM  threshold:  800
mg_entries:  1700
rfm_maxacts_per_trefi:  79 rfm_per_trefi:  10 rfm_blast_radius:  2
Switch at curTick count:10000
warn: membus.master is deprecated. `master` is now called `mem_side_ports`
warn: No dot file generated. Please install pydot to generate the dot file and pdf.
info: Entering event queue @ 14022978860124.  Starting simulation...
info: Entering event queue @ 14022978870124.  Starting simulation...
warn: PowerState: Already in the requested power state, request ignored
Switched CPUS @ tick 14022978870124
switching cpus
**** REAL SIMULATION ****
info: Entering event queue @ 14022978870780.  Starting simulation...
14026312193457: Event_285: system.switch_cpus3 progress event, total committed:21412612, progress insts committed: 21412612, IPC: 02.13912
14026312193457: Event_284: system.switch_cpus2 progress event, total committed:43129100, progress insts committed: 43129100, IPC: 004.3086
14026312193457: Event_283: system.switch_cpus1 progress event, total committed:24898648, progress insts committed: 24898648, IPC: 02.48737
14026312193457: Event_282: system.switch_cpus0 progress event, total committed:44445159, progress insts committed: 44445159, IPC: 04.44007
14029645526790: Event_282: system.switch_cpus0 progress event, total committed:89366518, progress insts committed: 44921359, IPC: 04.48764
14029645526790: Event_283: system.switch_cpus1 progress event, total committed:49982113, progress insts committed: 25083465, IPC: 02.50584
14029645526790: Event_284: system.switch_cpus2 progress event, total committed:88112215, progress insts committed: 44983115, IPC: 04.49381
14029645526790: Event_285: system.switch_cpus3 progress event, total committed:43480260, progress insts committed: 22067648, IPC: 02.20456
14032978860123: Event_285: system.switch_cpus3 progress event, total committed:66173390, progress insts committed: 22693130, IPC: 02.26704
14032978860123: Event_284: system.switch_cpus2 progress event, total committed:133070517, progress insts committed: 44958302, IPC: 04.49133
14032978860123: Event_283: system.switch_cpus1 progress event, total committed:76340437, progress insts committed: 26358324, IPC: 002.6332
14032978860123: Event_282: system.switch_cpus0 progress event, total committed:134639068, progress insts committed: 45272550, IPC: 04.52273
14036312193456: Event_282: system.switch_cpus0 progress event, total committed:179905659, progress insts committed: 45266591, IPC: 04.52213
14036312193456: Event_283: system.switch_cpus1 progress event, total committed:101557388, progress insts committed: 25216951, IPC: 02.51917
14036312193456: Event_284: system.switch_cpus2 progress event, total committed:178205717, progress insts committed: 45135200, IPC: 04.50901
14036312193456: Event_285: system.switch_cpus3 progress event, total committed:88481985, progress insts committed: 22308595, IPC: 02.22863
14039645526789: Event_285: system.switch_cpus3 progress event, total committed:110837865, progress insts committed: 22355880, IPC: 02.23335
14039645526789: Event_284: system.switch_cpus2 progress event, total committed:223136652, progress insts committed: 44930935, IPC: 004.4886
14039645526789: Event_283: system.switch_cpus1 progress event, total committed:124811736, progress insts committed: 23254348, IPC: 02.32311
14039645526789: Event_282: system.switch_cpus0 progress event, total committed:225177600, progress insts committed: 45271941, IPC: 04.52267
14042978860122: Event_282: system.switch_cpus0 progress event, total committed:270634231, progress insts committed: 45456631, IPC: 04.54112
14042978860122: Event_283: system.switch_cpus1 progress event, total committed:150552996, progress insts committed: 25741260, IPC: 02.57155
14042978860122: Event_284: system.switch_cpus2 progress event, total committed:268710732, progress insts committed: 45574080, IPC: 04.55285
14042978860122: Event_285: system.switch_cpus3 progress event, total committed:133781014, progress insts committed: 22943149, IPC: 02.29202
14046312193455: Event_285: system.switch_cpus3 progress event, total committed:156167302, progress insts committed: 22386288, IPC: 02.23639
14046312193455: Event_284: system.switch_cpus2 progress event, total committed:314296438, progress insts committed: 45585706, IPC: 04.55401
14046312193455: Event_283: system.switch_cpus1 progress event, total committed:176225102, progress insts committed: 25672106, IPC: 02.56464
14046312193455: Event_282: system.switch_cpus0 progress event, total committed:316186065, progress insts committed: 45551834, IPC: 04.55063
14049645526788: Event_282: system.switch_cpus0 progress event, total committed:361732261, progress insts committed: 45546196, IPC: 04.55006
14049645526788: Event_283: system.switch_cpus1 progress event, total committed:201563661, progress insts committed: 25338559, IPC: 02.53132
14049645526788: Event_284: system.switch_cpus2 progress event, total committed:359873151, progress insts committed: 45576713, IPC: 04.55311
14049645526788: Event_285: system.switch_cpus3 progress event, total committed:179126353, progress insts committed: 22959051, IPC: 02.29361
Exiting @ tick 14052318888393 because a thread reached the max instruction count
