
---------- Begin Simulation Statistics ----------
final_tick                               14052318888393                       # Number of ticks from beginning of simulation (restored from checkpoints and never reset)
host_inst_rate                                 180068                       # Simulator instruction rate (inst/s)
host_mem_usage                               17232284                       # Number of bytes of host memory used
host_op_rate                                   287812                       # Simulator op (including micro ops) rate (op/s)
host_seconds                                  4207.91                       # Real time elapsed on the host
host_tick_rate                                6972583                       # Simulator tick rate (ticks/s)
sim_freq                                 1000000000000                       # Frequency of simulated ticks
sim_insts                                   757709638                       # Number of instructions simulated
sim_ops                                    1211087737                       # Number of ops (including micro ops) simulated
sim_seconds                                  0.029340                       # Number of seconds simulated
sim_ticks                                 29340028269                       # Number of ticks simulated
system.cpu0.Branches                                1                       # Number of branches fetched
system.cpu0.committedInsts                         14                       # Number of instructions committed
system.cpu0.committedOps                           22                       # Number of ops (including micro ops) committed
system.cpu0.idle_fraction                           0                       # Percentage of idle cycles
system.cpu0.l2bus.snoop_filter.hit_multi_requests        37120                       # Number of requests hitting in the snoop filter with multiple (>1) holders of the requested data.
system.cpu0.l2bus.snoop_filter.hit_multi_snoops            0                       # Number of snoops hitting in the snoop filter with multiple (>1) holders of the requested data.
system.cpu0.l2bus.snoop_filter.hit_single_requests      1524734                       # Number of requests hitting in the snoop filter with a single holder of the requested data.
system.cpu0.l2bus.snoop_filter.hit_single_snoops            0                       # Number of snoops hitting in the snoop filter with a single holder of the requested data.
system.cpu0.l2bus.snoop_filter.tot_requests      3050418                       # Total number of requests made to the snoop filter.
system.cpu0.l2bus.snoop_filter.tot_snoops            0                       # Total number of snoops made to the snoop filter.
system.cpu0.mmucache.mmubus.snoop_filter.hit_multi_requests            0                       # Number of requests hitting in the snoop filter with multiple (>1) holders of the requested data.
system.cpu0.mmucache.mmubus.snoop_filter.hit_multi_snoops            0                       # Number of snoops hitting in the snoop filter with multiple (>1) holders of the requested data.
system.cpu0.mmucache.mmubus.snoop_filter.hit_single_requests            0                       # Number of requests hitting in the snoop filter with a single holder of the requested data.
system.cpu0.mmucache.mmubus.snoop_filter.hit_single_snoops            0                       # Number of snoops hitting in the snoop filter with a single holder of the requested data.
system.cpu0.mmucache.mmubus.snoop_filter.tot_requests            0                       # Total number of requests made to the snoop filter.
system.cpu0.mmucache.mmubus.snoop_filter.tot_snoops            0                       # Total number of snoops made to the snoop filter.
system.cpu0.not_idle_fraction                       1                       # Percentage of non-idle cycles
system.cpu0.numCycles                              31                       # number of cpu cycles simulated
system.cpu0.numWorkItemsCompleted                   0                       # number of work items this cpu completed
system.cpu0.numWorkItemsStarted                     0                       # number of work items this cpu started
system.cpu0.num_busy_cycles                        31                       # Number of busy cycles
system.cpu0.num_cc_register_reads                   6                       # number of times the CC registers were read
system.cpu0.num_cc_register_writes                  4                       # number of times the CC registers were written
system.cpu0.num_conditional_control_insts            1                       # number of instructions that are conditional controls
system.cpu0.num_fp_alu_accesses                     7                       # Number of float alu accesses
system.cpu0.num_fp_insts                            7                       # number of float instructions
system.cpu0.num_fp_register_reads                   4                       # number of times the floating registers were read
system.cpu0.num_fp_register_writes                  3                       # number of times the floating registers were written
system.cpu0.num_func_calls                          0                       # number of times a function call or return occured
system.cpu0.num_idle_cycles                         0                       # Number of idle cycles
system.cpu0.num_int_alu_accesses                   22                       # Number of integer alu accesses
system.cpu0.num_int_insts                          22                       # number of integer instructions
system.cpu0.num_int_register_reads                 50                       # number of times the integer registers were read
system.cpu0.num_int_register_writes                13                       # number of times the integer registers were written
system.cpu0.num_load_insts                          7                       # Number of load instructions
system.cpu0.num_mem_refs                           12                       # number of memory refs
system.cpu0.num_store_insts                         5                       # Number of store instructions
system.cpu0.num_vec_alu_accesses                    0                       # Number of vector alu accesses
system.cpu0.num_vec_insts                           0                       # number of vector instructions
system.cpu0.num_vec_register_reads                  0                       # number of times the vector registers were read
system.cpu0.num_vec_register_writes                 0                       # number of times the vector registers were written
system.cpu0.op_class::No_OpClass                    0      0.00%      0.00% # Class of executed instruction
system.cpu0.op_class::IntAlu                       10     45.45%     45.45% # Class of executed instruction
system.cpu0.op_class::IntMult                       0      0.00%     45.45% # Class of executed instruction
system.cpu0.op_class::IntDiv                        0      0.00%     45.45% # Class of executed instruction
system.cpu0.op_class::FloatAdd                      0      0.00%     45.45% # Class of executed instruction
system.cpu0.op_class::FloatCmp                      0      0.00%     45.45% # Class of executed instruction
system.cpu0.op_class::FloatCvt                      0      0.00%     45.45% # Class of executed instruction
system.cpu0.op_class::FloatMult                     0      0.00%     45.45% # Class of executed instruction
system.cpu0.op_class::FloatMultAcc                  0      0.00%     45.45% # Class of executed instruction
system.cpu0.op_class::FloatDiv                      0      0.00%     45.45% # Class of executed instruction
system.cpu0.op_class::FloatMisc                     0      0.00%     45.45% # Class of executed instruction
system.cpu0.op_class::FloatSqrt                     0      0.00%     45.45% # Class of executed instruction
system.cpu0.op_class::SimdAdd                       0      0.00%     45.45% # Class of executed instruction
system.cpu0.op_class::SimdAddAcc                    0      0.00%     45.45% # Class of executed instruction
system.cpu0.op_class::SimdAlu                       0      0.00%     45.45% # Class of executed instruction
system.cpu0.op_class::SimdCmp                       0      0.00%     45.45% # Class of executed instruction
system.cpu0.op_class::SimdCvt                       0      0.00%     45.45% # Class of executed instruction
system.cpu0.op_class::SimdMisc                      0      0.00%     45.45% # Class of executed instruction
system.cpu0.op_class::SimdMult                      0      0.00%     45.45% # Class of executed instruction
system.cpu0.op_class::SimdMultAcc                   0      0.00%     45.45% # Class of executed instruction
system.cpu0.op_class::SimdShift                     0      0.00%     45.45% # Class of executed instruction
system.cpu0.op_class::SimdShiftAcc                  0      0.00%     45.45% # Class of executed instruction
system.cpu0.op_class::SimdDiv                       0      0.00%     45.45% # Class of executed instruction
system.cpu0.op_class::SimdSqrt                      0      0.00%     45.45% # Class of executed instruction
system.cpu0.op_class::SimdFloatAdd                  0      0.00%     45.45% # Class of executed instruction
system.cpu0.op_class::SimdFloatAlu                  0      0.00%     45.45% # Class of executed instruction
system.cpu0.op_class::SimdFloatCmp                  0      0.00%     45.45% # Class of executed instruction
system.cpu0.op_class::SimdFloatCvt                  0      0.00%     45.45% # Class of executed instruction
system.cpu0.op_class::SimdFloatDiv                  0      0.00%     45.45% # Class of executed instruction
system.cpu0.op_class::SimdFloatMisc                 0      0.00%     45.45% # Class of executed instruction
system.cpu0.op_class::SimdFloatMult                 0      0.00%     45.45% # Class of executed instruction
system.cpu0.op_class::SimdFloatMultAcc              0      0.00%     45.45% # Class of executed instruction
system.cpu0.op_class::SimdFloatSqrt                 0      0.00%     45.45% # Class of executed instruction
system.cpu0.op_class::SimdReduceAdd                 0      0.00%     45.45% # Class of executed instruction
system.cpu0.op_class::SimdReduceAlu                 0      0.00%     45.45% # Class of executed instruction
system.cpu0.op_class::SimdReduceCmp                 0      0.00%     45.45% # Class of executed instruction
system.cpu0.op_class::SimdFloatReduceAdd            0      0.00%     45.45% # Class of executed instruction
system.cpu0.op_class::SimdFloatReduceCmp            0      0.00%     45.45% # Class of executed instruction
system.cpu0.op_class::SimdAes                       0      0.00%     45.45% # Class of executed instruction
system.cpu0.op_class::SimdAesMix                    0      0.00%     45.45% # Class of executed instruction
system.cpu0.op_class::SimdSha1Hash                  0      0.00%     45.45% # Class of executed instruction
system.cpu0.op_class::SimdSha1Hash2                 0      0.00%     45.45% # Class of executed instruction
system.cpu0.op_class::SimdSha256Hash                0      0.00%     45.45% # Class of executed instruction
system.cpu0.op_class::SimdSha256Hash2               0      0.00%     45.45% # Class of executed instruction
system.cpu0.op_class::SimdShaSigma2                 0      0.00%     45.45% # Class of executed instruction
system.cpu0.op_class::SimdShaSigma3                 0      0.00%     45.45% # Class of executed instruction
system.cpu0.op_class::SimdPredAlu                   0      0.00%     45.45% # Class of executed instruction
system.cpu0.op_class::MemRead                       4     18.18%     63.64% # Class of executed instruction
system.cpu0.op_class::MemWrite                      1      4.55%     68.18% # Class of executed instruction
system.cpu0.op_class::FloatMemRead                  3     13.64%     81.82% # Class of executed instruction
system.cpu0.op_class::FloatMemWrite                 4     18.18%    100.00% # Class of executed instruction
system.cpu0.op_class::IprAccess                     0      0.00%    100.00% # Class of executed instruction
system.cpu0.op_class::InstPrefetch                  0      0.00%    100.00% # Class of executed instruction
system.cpu0.op_class::total                        22                       # Class of executed instruction
system.cpu0.workload.numSyscalls                    0                       # Number of system calls
system.cpu1.committedInsts                         18                       # Number of instructions committed
system.cpu1.committedOps                           28                       # Number of ops (including micro ops) committed
system.cpu1.idle_fraction                           0                       # Percentage of idle cycles
system.cpu1.l2bus.snoop_filter.hit_multi_requests           87                       # Number of requests hitting in the snoop filter with multiple (>1) holders of the requested data.
system.cpu1.l2bus.snoop_filter.hit_multi_snoops            0                       # Number of snoops hitting in the snoop filter with multiple (>1) holders of the requested data.
system.cpu1.l2bus.snoop_filter.hit_single_requests        94727                       # Number of requests hitting in the snoop filter with a single holder of the requested data.
system.cpu1.l2bus.snoop_filter.hit_single_snoops          612                       # Number of snoops hitting in the snoop filter with a single holder of the requested data.
system.cpu1.l2bus.snoop_filter.tot_requests       190333                       # Total number of requests made to the snoop filter.
system.cpu1.l2bus.snoop_filter.tot_snoops          612                       # Total number of snoops made to the snoop filter.
system.cpu1.mmucache.mmubus.snoop_filter.hit_multi_requests            0                       # Number of requests hitting in the snoop filter with multiple (>1) holders of the requested data.
system.cpu1.mmucache.mmubus.snoop_filter.hit_multi_snoops            0                       # Number of snoops hitting in the snoop filter with multiple (>1) holders of the requested data.
system.cpu1.mmucache.mmubus.snoop_filter.hit_single_requests            0                       # Number of requests hitting in the snoop filter with a single holder of the requested data.
system.cpu1.mmucache.mmubus.snoop_filter.hit_single_snoops            0                       # Number of snoops hitting in the snoop filter with a single holder of the requested data.
system.cpu1.mmucache.mmubus.snoop_filter.tot_requests            0                       # Total number of requests made to the snoop filter.
system.cpu1.mmucache.mmubus.snoop_filter.tot_snoops            0                       # Total number of snoops made to the snoop filter.
system.cpu1.not_idle_fraction                       1                       # Percentage of non-idle cycles
system.cpu1.numCycles                              30                       # number of cpu cycles simulated
system.cpu1.numWorkItemsCompleted                   0                       # number of work items this cpu completed
system.cpu1.numWorkItemsStarted                     0                       # number of work items this cpu started
system.cpu1.num_busy_cycles                        30                       # Number of busy cycles
system.cpu1.num_cc_register_reads                  14                       # number of times the CC registers were read
system.cpu1.num_cc_register_writes                 16                       # number of times the CC registers were written
system.cpu1.num_conditional_control_insts            0                       # number of instructions that are conditional controls
system.cpu1.num_fp_alu_accesses                     0                       # Number of float alu accesses
system.cpu1.num_fp_insts                            0                       # number of float instructions
system.cpu1.num_fp_register_reads                   0                       # number of times the floating registers were read
system.cpu1.num_fp_register_writes                  0                       # number of times the floating registers were written
system.cpu1.num_func_calls                          0                       # number of times a function call or return occured
system.cpu1.num_idle_cycles                         0                       # Number of idle cycles
system.cpu1.num_int_alu_accesses                   28                       # Number of integer alu accesses
system.cpu1.num_int_insts                          28                       # number of integer instructions
system.cpu1.num_int_register_reads                 70                       # number of times the integer registers were read
system.cpu1.num_int_register_writes                29                       # number of times the integer registers were written
system.cpu1.num_load_insts                          5                       # Number of load instructions
system.cpu1.num_mem_refs                            6                       # number of memory refs
system.cpu1.num_store_insts                         1                       # Number of store instructions
system.cpu1.num_vec_alu_accesses                    0                       # Number of vector alu accesses
system.cpu1.num_vec_insts                           0                       # number of vector instructions
system.cpu1.num_vec_register_reads                  0                       # number of times the vector registers were read
system.cpu1.num_vec_register_writes                 0                       # number of times the vector registers were written
system.cpu1.op_class::No_OpClass                    0      0.00%      0.00% # Class of executed instruction
system.cpu1.op_class::IntAlu                       20     71.43%     71.43% # Class of executed instruction
system.cpu1.op_class::IntMult                       2      7.14%     78.57% # Class of executed instruction
system.cpu1.op_class::IntDiv                        0      0.00%     78.57% # Class of executed instruction
system.cpu1.op_class::FloatAdd                      0      0.00%     78.57% # Class of executed instruction
system.cpu1.op_class::FloatCmp                      0      0.00%     78.57% # Class of executed instruction
system.cpu1.op_class::FloatCvt                      0      0.00%     78.57% # Class of executed instruction
system.cpu1.op_class::FloatMult                     0      0.00%     78.57% # Class of executed instruction
system.cpu1.op_class::FloatMultAcc                  0      0.00%     78.57% # Class of executed instruction
system.cpu1.op_class::FloatDiv                      0      0.00%     78.57% # Class of executed instruction
system.cpu1.op_class::FloatMisc                     0      0.00%     78.57% # Class of executed instruction
system.cpu1.op_class::FloatSqrt                     0      0.00%     78.57% # Class of executed instruction
system.cpu1.op_class::SimdAdd                       0      0.00%     78.57% # Class of executed instruction
system.cpu1.op_class::SimdAddAcc                    0      0.00%     78.57% # Class of executed instruction
system.cpu1.op_class::SimdAlu                       0      0.00%     78.57% # Class of executed instruction
system.cpu1.op_class::SimdCmp                       0      0.00%     78.57% # Class of executed instruction
system.cpu1.op_class::SimdCvt                       0      0.00%     78.57% # Class of executed instruction
system.cpu1.op_class::SimdMisc                      0      0.00%     78.57% # Class of executed instruction
system.cpu1.op_class::SimdMult                      0      0.00%     78.57% # Class of executed instruction
system.cpu1.op_class::SimdMultAcc                   0      0.00%     78.57% # Class of executed instruction
system.cpu1.op_class::SimdShift                     0      0.00%     78.57% # Class of executed instruction
system.cpu1.op_class::SimdShiftAcc                  0      0.00%     78.57% # Class of executed instruction
system.cpu1.op_class::SimdDiv                       0      0.00%     78.57% # Class of executed instruction
system.cpu1.op_class::SimdSqrt                      0      0.00%     78.57% # Class of executed instruction
system.cpu1.op_class::SimdFloatAdd                  0      0.00%     78.57% # Class of executed instruction
system.cpu1.op_class::SimdFloatAlu                  0      0.00%     78.57% # Class of executed instruction
system.cpu1.op_class::SimdFloatCmp                  0      0.00%     78.57% # Class of executed instruction
system.cpu1.op_class::SimdFloatCvt                  0      0.00%     78.57% # Class of executed instruction
system.cpu1.op_class::SimdFloatDiv                  0      0.00%     78.57% # Class of executed instruction
system.cpu1.op_class::SimdFloatMisc                 0      0.00%     78.57% # Class of executed instruction
system.cpu1.op_class::SimdFloatMult                 0      0.00%     78.57% # Class of executed instruction
system.cpu1.op_class::SimdFloatMultAcc              0      0.00%     78.57% # Class of executed instruction
system.cpu1.op_class::SimdFloatSqrt                 0      0.00%     78.57% # Class of executed instruction
system.cpu1.op_class::SimdReduceAdd                 0      0.00%     78.57% # Class of executed instruction
system.cpu1.op_class::SimdReduceAlu                 0      0.00%     78.57% # Class of executed instruction
system.cpu1.op_class::SimdReduceCmp                 0      0.00%     78.57% # Class of executed instruction
system.cpu1.op_class::SimdFloatReduceAdd            0      0.00%     78.57% # Class of executed instruction
system.cpu1.op_class::SimdFloatReduceCmp            0      0.00%     78.57% # Class of executed instruction
system.cpu1.op_class::SimdAes                       0      0.00%     78.57% # Class of executed instruction
system.cpu1.op_class::SimdAesMix                    0      0.00%     78.57% # Class of executed instruction
system.cpu1.op_class::SimdSha1Hash                  0      0.00%     78.57% # Class of executed instruction
system.cpu1.op_class::SimdSha1Hash2                 0      0.00%     78.57% # Class of executed instruction
system.cpu1.op_class::SimdSha256Hash                0      0.00%     78.57% # Class of executed instruction
system.cpu1.op_class::SimdSha256Hash2               0      0.00%     78.57% # Class of executed instruction
system.cpu1.op_class::SimdShaSigma2                 0      0.00%     78.57% # Class of executed instruction
system.cpu1.op_class::SimdShaSigma3                 0      0.00%     78.57% # Class of executed instruction
system.cpu1.op_class::SimdPredAlu                   0      0.00%     78.57% # Class of executed instruction
system.cpu1.op_class::MemRead                       5     17.86%     96.43% # Class of executed instruction
system.cpu1.op_class::MemWrite                      1      3.57%    100.00% # Class of executed instruction
system.cpu1.op_class::FloatMemRead                  0      0.00%    100.00% # Class of executed instruction
system.cpu1.op_class::FloatMemWrite                 0      0.00%    100.00% # Class of executed instruction
system.cpu1.op_class::IprAccess                     0      0.00%    100.00% # Class of executed instruction
system.cpu1.op_class::InstPrefetch                  0      0.00%    100.00% # Class of executed instruction
system.cpu1.op_class::total                        28                       # Class of executed instruction
system.cpu1.workload.numSyscalls                    0                       # Number of system calls
system.cpu2.Branches                                2                       # Number of branches fetched
system.cpu2.committedInsts                         14                       # Number of instructions committed
system.cpu2.committedOps                           25                       # Number of ops (including micro ops) committed
system.cpu2.idle_fraction                           0                       # Percentage of idle cycles
system.cpu2.l2bus.snoop_filter.hit_multi_requests            1                       # Number of requests hitting in the snoop filter with multiple (>1) holders of the requested data.
system.cpu2.l2bus.snoop_filter.hit_multi_snoops            0                       # Number of snoops hitting in the snoop filter with multiple (>1) holders of the requested data.
system.cpu2.l2bus.snoop_filter.hit_single_requests      1234805                       # Number of requests hitting in the snoop filter with a single holder of the requested data.
system.cpu2.l2bus.snoop_filter.hit_single_snoops          281                       # Number of snoops hitting in the snoop filter with a single holder of the requested data.
system.cpu2.l2bus.snoop_filter.tot_requests      2466770                       # Total number of requests made to the snoop filter.
system.cpu2.l2bus.snoop_filter.tot_snoops          281                       # Total number of snoops made to the snoop filter.
system.cpu2.mmucache.mmubus.snoop_filter.hit_multi_requests            0                       # Number of requests hitting in the snoop filter with multiple (>1) holders of the requested data.
system.cpu2.mmucache.mmubus.snoop_filter.hit_multi_snoops            0                       # Number of snoops hitting in the snoop filter with multiple (>1) holders of the requested data.
system.cpu2.mmucache.mmubus.snoop_filter.hit_single_requests            0                       # Number of requests hitting in the snoop filter with a single holder of the requested data.
system.cpu2.mmucache.mmubus.snoop_filter.hit_single_snoops            0                       # Number of snoops hitting in the snoop filter with a single holder of the requested data.
system.cpu2.mmucache.mmubus.snoop_filter.tot_requests            0                       # Total number of requests made to the snoop filter.
system.cpu2.mmucache.mmubus.snoop_filter.tot_snoops            0                       # Total number of snoops made to the snoop filter.
system.cpu2.not_idle_fraction                       1                       # Percentage of non-idle cycles
system.cpu2.numCycles                              32                       # number of cpu cycles simulated
system.cpu2.numWorkItemsCompleted                   0                       # number of work items this cpu completed
system.cpu2.numWorkItemsStarted                     0                       # number of work items this cpu started
system.cpu2.num_busy_cycles                        32                       # Number of busy cycles
system.cpu2.num_cc_register_reads                  12                       # number of times the CC registers were read
system.cpu2.num_cc_register_writes                  8                       # number of times the CC registers were written
system.cpu2.num_conditional_control_insts            2                       # number of instructions that are conditional controls
system.cpu2.num_fp_alu_accesses                     8                       # Number of float alu accesses
system.cpu2.num_fp_insts                            8                       # number of float instructions
system.cpu2.num_fp_register_reads                   6                       # number of times the floating registers were read
system.cpu2.num_fp_register_writes                  6                       # number of times the floating registers were written
system.cpu2.num_func_calls                          0                       # number of times a function call or return occured
system.cpu2.num_idle_cycles                         0                       # Number of idle cycles
system.cpu2.num_int_alu_accesses                   21                       # Number of integer alu accesses
system.cpu2.num_int_insts                          21                       # number of integer instructions
system.cpu2.num_int_register_reads                 36                       # number of times the integer registers were read
system.cpu2.num_int_register_writes                16                       # number of times the integer registers were written
system.cpu2.num_load_insts                          2                       # Number of load instructions
system.cpu2.num_mem_refs                            3                       # number of memory refs
system.cpu2.num_store_insts                         1                       # Number of store instructions
system.cpu2.num_vec_alu_accesses                    0                       # Number of vector alu accesses
system.cpu2.num_vec_insts                           0                       # number of vector instructions
system.cpu2.num_vec_register_reads                  0                       # number of times the vector registers were read
system.cpu2.num_vec_register_writes                 0                       # number of times the vector registers were written
system.cpu2.op_class::No_OpClass                    0      0.00%      0.00% # Class of executed instruction
system.cpu2.op_class::IntAlu                       18     72.00%     72.00% # Class of executed instruction
system.cpu2.op_class::IntMult                       0      0.00%     72.00% # Class of executed instruction
system.cpu2.op_class::IntDiv                        0      0.00%     72.00% # Class of executed instruction
system.cpu2.op_class::FloatAdd                      2      8.00%     80.00% # Class of executed instruction
system.cpu2.op_class::FloatCmp                      0      0.00%     80.00% # Class of executed instruction
system.cpu2.op_class::FloatCvt                      0      0.00%     80.00% # Class of executed instruction
system.cpu2.op_class::FloatMult                     0      0.00%     80.00% # Class of executed instruction
system.cpu2.op_class::FloatMultAcc                  0      0.00%     80.00% # Class of executed instruction
system.cpu2.op_class::FloatDiv                      0      0.00%     80.00% # Class of executed instruction
system.cpu2.op_class::FloatMisc                     0      0.00%     80.00% # Class of executed instruction
system.cpu2.op_class::FloatSqrt                     0      0.00%     80.00% # Class of executed instruction
system.cpu2.op_class::SimdAdd                       0      0.00%     80.00% # Class of executed instruction
system.cpu2.op_class::SimdAddAcc                    0      0.00%     80.00% # Class of executed instruction
system.cpu2.op_class::SimdAlu                       0      0.00%     80.00% # Class of executed instruction
system.cpu2.op_class::SimdCmp                       0      0.00%     80.00% # Class of executed instruction
system.cpu2.op_class::SimdCvt                       0      0.00%     80.00% # Class of executed instruction
system.cpu2.op_class::SimdMisc                      2      8.00%     88.00% # Class of executed instruction
system.cpu2.op_class::SimdMult                      0      0.00%     88.00% # Class of executed instruction
system.cpu2.op_class::SimdMultAcc                   0      0.00%     88.00% # Class of executed instruction
system.cpu2.op_class::SimdShift                     0      0.00%     88.00% # Class of executed instruction
system.cpu2.op_class::SimdShiftAcc                  0      0.00%     88.00% # Class of executed instruction
system.cpu2.op_class::SimdDiv                       0      0.00%     88.00% # Class of executed instruction
system.cpu2.op_class::SimdSqrt                      0      0.00%     88.00% # Class of executed instruction
system.cpu2.op_class::SimdFloatAdd                  0      0.00%     88.00% # Class of executed instruction
system.cpu2.op_class::SimdFloatAlu                  0      0.00%     88.00% # Class of executed instruction
system.cpu2.op_class::SimdFloatCmp                  0      0.00%     88.00% # Class of executed instruction
system.cpu2.op_class::SimdFloatCvt                  0      0.00%     88.00% # Class of executed instruction
system.cpu2.op_class::SimdFloatDiv                  0      0.00%     88.00% # Class of executed instruction
system.cpu2.op_class::SimdFloatMisc                 0      0.00%     88.00% # Class of executed instruction
system.cpu2.op_class::SimdFloatMult                 0      0.00%     88.00% # Class of executed instruction
system.cpu2.op_class::SimdFloatMultAcc              0      0.00%     88.00% # Class of executed instruction
system.cpu2.op_class::SimdFloatSqrt                 0      0.00%     88.00% # Class of executed instruction
system.cpu2.op_class::SimdReduceAdd                 0      0.00%     88.00% # Class of executed instruction
system.cpu2.op_class::SimdReduceAlu                 0      0.00%     88.00% # Class of executed instruction
system.cpu2.op_class::SimdReduceCmp                 0      0.00%     88.00% # Class of executed instruction
system.cpu2.op_class::SimdFloatReduceAdd            0      0.00%     88.00% # Class of executed instruction
system.cpu2.op_class::SimdFloatReduceCmp            0      0.00%     88.00% # Class of executed instruction
system.cpu2.op_class::SimdAes                       0      0.00%     88.00% # Class of executed instruction
system.cpu2.op_class::SimdAesMix                    0      0.00%     88.00% # Class of executed instruction
system.cpu2.op_class::SimdSha1Hash                  0      0.00%     88.00% # Class of executed instruction
system.cpu2.op_class::SimdSha1Hash2                 0      0.00%     88.00% # Class of executed instruction
system.cpu2.op_class::SimdSha256Hash                0      0.00%     88.00% # Class of executed instruction
system.cpu2.op_class::SimdSha256Hash2               0      0.00%     88.00% # Class of executed instruction
system.cpu2.op_class::SimdShaSigma2                 0      0.00%     88.00% # Class of executed instruction
system.cpu2.op_class::SimdShaSigma3                 0      0.00%     88.00% # Class of executed instruction
system.cpu2.op_class::SimdPredAlu                   0      0.00%     88.00% # Class of executed instruction
system.cpu2.op_class::MemRead                       0      0.00%     88.00% # Class of executed instruction
system.cpu2.op_class::MemWrite                      1      4.00%     92.00% # Class of executed instruction
system.cpu2.op_class::FloatMemRead                  2      8.00%    100.00% # Class of executed instruction
system.cpu2.op_class::FloatMemWrite                 0      0.00%    100.00% # Class of executed instruction
system.cpu2.op_class::IprAccess                     0      0.00%    100.00% # Class of executed instruction
system.cpu2.op_class::InstPrefetch                  0      0.00%    100.00% # Class of executed instruction
system.cpu2.op_class::total                        25                       # Class of executed instruction
system.cpu2.workload.numSyscalls                    0                       # Number of system calls
system.cpu3.Branches                                3                       # Number of branches fetched
system.cpu3.committedInsts                         13                       # Number of instructions committed
system.cpu3.committedOps                           25                       # Number of ops (including micro ops) committed
system.cpu3.idle_fraction                           0                       # Percentage of idle cycles
system.cpu3.l2bus.snoop_filter.hit_multi_requests          796                       # Number of requests hitting in the snoop filter with multiple (>1) holders of the requested data.
system.cpu3.l2bus.snoop_filter.hit_multi_snoops            0                       # Number of snoops hitting in the snoop filter with multiple (>1) holders of the requested data.
system.cpu3.l2bus.snoop_filter.hit_single_requests       295009                       # Number of requests hitting in the snoop filter with a single holder of the requested data.
system.cpu3.l2bus.snoop_filter.hit_single_snoops         1433                       # Number of snoops hitting in the snoop filter with a single holder of the requested data.
system.cpu3.l2bus.snoop_filter.tot_requests       590748                       # Total number of requests made to the snoop filter.
system.cpu3.l2bus.snoop_filter.tot_snoops         1433                       # Total number of snoops made to the snoop filter.
system.cpu3.mmucache.mmubus.snoop_filter.hit_multi_requests            0                       # Number of requests hitting in the snoop filter with multiple (>1) holders of the requested data.
system.cpu3.mmucache.mmubus.snoop_filter.hit_multi_snoops            0                       # Number of snoops hitting in the snoop filter with multiple (>1) holders of the requested data.
system.cpu3.mmucache.mmubus.snoop_filter.hit_single_requests            0                       # Number of requests hitting in the snoop filter with a single holder of the requested data.
system.cpu3.mmucache.mmubus.snoop_filter.hit_single_snoops            0                       # Number of snoops hitting in the snoop filter with a single holder of the requested data.
system.cpu3.mmucache.mmubus.snoop_filter.tot_requests            0                       # Total number of requests made to the snoop filter.
system.cpu3.mmucache.mmubus.snoop_filter.tot_snoops            0                       # Total number of snoops made to the snoop filter.
system.cpu3.not_idle_fraction                       1                       # Percentage of non-idle cycles
system.cpu3.numCycles                              30                       # number of cpu cycles simulated
system.cpu3.numWorkItemsCompleted                   0                       # number of work items this cpu completed
system.cpu3.numWorkItemsStarted                     0                       # number of work items this cpu started
system.cpu3.num_busy_cycles                        30                       # Number of busy cycles
system.cpu3.num_cc_register_reads                  17                       # number of times the CC registers were read
system.cpu3.num_cc_register_writes                 18                       # number of times the CC registers were written
system.cpu3.num_conditional_control_insts            2                       # number of instructions that are conditional controls
system.cpu3.num_fp_alu_accesses                     0                       # Number of float alu accesses
system.cpu3.num_fp_insts                            0                       # number of float instructions
system.cpu3.num_fp_register_reads                   0                       # number of times the floating registers were read
system.cpu3.num_fp_register_writes                  0                       # number of times the floating registers were written
system.cpu3.num_func_calls                          1                       # number of times a function call or return occured
system.cpu3.num_idle_cycles                         0                       # Number of idle cycles
system.cpu3.num_int_alu_accesses                   25                       # Number of integer alu accesses
system.cpu3.num_int_insts                          25                       # number of integer instructions
system.cpu3.num_int_register_reads                 36                       # number of times the integer registers were read
system.cpu3.num_int_register_writes                22                       # number of times the integer registers were written
system.cpu3.num_load_insts                          2                       # Number of load instructions
system.cpu3.num_mem_refs                            2                       # number of memory refs
system.cpu3.num_store_insts                         0                       # Number of store instructions
system.cpu3.num_vec_alu_accesses                    0                       # Number of vector alu accesses
system.cpu3.num_vec_insts                           0                       # number of vector instructions
system.cpu3.num_vec_register_reads                  0                       # number of times the vector registers were read
system.cpu3.num_vec_register_writes                 0                       # number of times the vector registers were written
system.cpu3.op_class::No_OpClass                    0      0.00%      0.00% # Class of executed instruction
system.cpu3.op_class::IntAlu                       23     92.00%     92.00% # Class of executed instruction
system.cpu3.op_class::IntMult                       0      0.00%     92.00% # Class of executed instruction
system.cpu3.op_class::IntDiv                        0      0.00%     92.00% # Class of executed instruction
system.cpu3.op_class::FloatAdd                      0      0.00%     92.00% # Class of executed instruction
system.cpu3.op_class::FloatCmp                      0      0.00%     92.00% # Class of executed instruction
system.cpu3.op_class::FloatCvt                      0      0.00%     92.00% # Class of executed instruction
system.cpu3.op_class::FloatMult                     0      0.00%     92.00% # Class of executed instruction
system.cpu3.op_class::FloatMultAcc                  0      0.00%     92.00% # Class of executed instruction
system.cpu3.op_class::FloatDiv                      0      0.00%     92.00% # Class of executed instruction
system.cpu3.op_class::FloatMisc                     0      0.00%     92.00% # Class of executed instruction
system.cpu3.op_class::FloatSqrt                     0      0.00%     92.00% # Class of executed instruction
system.cpu3.op_class::SimdAdd                       0      0.00%     92.00% # Class of executed instruction
system.cpu3.op_class::SimdAddAcc                    0      0.00%     92.00% # Class of executed instruction
system.cpu3.op_class::SimdAlu                       0      0.00%     92.00% # Class of executed instruction
system.cpu3.op_class::SimdCmp                       0      0.00%     92.00% # Class of executed instruction
system.cpu3.op_class::SimdCvt                       0      0.00%     92.00% # Class of executed instruction
system.cpu3.op_class::SimdMisc                      0      0.00%     92.00% # Class of executed instruction
system.cpu3.op_class::SimdMult                      0      0.00%     92.00% # Class of executed instruction
system.cpu3.op_class::SimdMultAcc                   0      0.00%     92.00% # Class of executed instruction
system.cpu3.op_class::SimdShift                     0      0.00%     92.00% # Class of executed instruction
system.cpu3.op_class::SimdShiftAcc                  0      0.00%     92.00% # Class of executed instruction
system.cpu3.op_class::SimdDiv                       0      0.00%     92.00% # Class of executed instruction
system.cpu3.op_class::SimdSqrt                      0      0.00%     92.00% # Class of executed instruction
system.cpu3.op_class::SimdFloatAdd                  0      0.00%     92.00% # Class of executed instruction
system.cpu3.op_class::SimdFloatAlu                  0      0.00%     92.00% # Class of executed instruction
system.cpu3.op_class::SimdFloatCmp                  0      0.00%     92.00% # Class of executed instruction
system.cpu3.op_class::SimdFloatCvt                  0      0.00%     92.00% # Class of executed instruction
system.cpu3.op_class::SimdFloatDiv                  0      0.00%     92.00% # Class of executed instruction
system.cpu3.op_class::SimdFloatMisc                 0      0.00%     92.00% # Class of executed instruction
system.cpu3.op_class::SimdFloatMult                 0      0.00%     92.00% # Class of executed instruction
system.cpu3.op_class::SimdFloatMultAcc              0      0.00%     92.00% # Class of executed instruction
system.cpu3.op_class::SimdFloatSqrt                 0      0.00%     92.00% # Class of executed instruction
system.cpu3.op_class::SimdReduceAdd                 0      0.00%     92.00% # Class of executed instruction
system.cpu3.op_class::SimdReduceAlu                 0      0.00%     92.00% # Class of executed instruction
system.cpu3.op_class::SimdReduceCmp                 0      0.00%     92.00% # Class of executed instruction
system.cpu3.op_class::SimdFloatReduceAdd            0      0.00%     92.00% # Class of executed instruction
system.cpu3.op_class::SimdFloatReduceCmp            0      0.00%     92.00% # Class of executed instruction
system.cpu3.op_class::SimdAes                       0      0.00%     92.00% # Class of executed instruction
system.cpu3.op_class::SimdAesMix                    0      0.00%     92.00% # Class of executed instruction
system.cpu3.op_class::SimdSha1Hash                  0      0.00%     92.00% # Class of executed instruction
system.cpu3.op_class::SimdSha1Hash2                 0      0.00%     92.00% # Class of executed instruction
system.cpu3.op_class::SimdSha256Hash                0      0.00%     92.00% # Class of executed instruction
system.cpu3.op_class::SimdSha256Hash2               0      0.00%     92.00% # Class of executed instruction
system.cpu3.op_class::SimdShaSigma2                 0      0.00%     92.00% # Class of executed instruction
system.cpu3.op_class::SimdShaSigma3                 0      0.00%     92.00% # Class of executed instruction
system.cpu3.op_class::SimdPredAlu                   0      0.00%     92.00% # Class of executed instruction
system.cpu3.op_class::MemRead                       2      8.00%    100.00% # Class of executed instruction
system.cpu3.op_class::MemWrite                      0      0.00%    100.00% # Class of executed instruction
system.cpu3.op_class::FloatMemRead                  0      0.00%    100.00% # Class of executed instruction
system.cpu3.op_class::FloatMemWrite                 0      0.00%    100.00% # Class of executed instruction
system.cpu3.op_class::IprAccess                     0      0.00%    100.00% # Class of executed instruction
system.cpu3.op_class::InstPrefetch                  0      0.00%    100.00% # Class of executed instruction
system.cpu3.op_class::total                        25                       # Class of executed instruction
system.cpu3.workload.numSyscalls                    0                       # Number of system calls
system.l3bus.snoop_filter.hit_multi_requests            0                       # Number of requests hitting in the snoop filter with multiple (>1) holders of the requested data.
system.l3bus.snoop_filter.hit_multi_snoops            0                       # Number of snoops hitting in the snoop filter with multiple (>1) holders of the requested data.
system.l3bus.snoop_filter.hit_single_requests       141809                       # Number of requests hitting in the snoop filter with a single holder of the requested data.
system.l3bus.snoop_filter.hit_single_snoops            0                       # Number of snoops hitting in the snoop filter with a single holder of the requested data.
system.l3bus.snoop_filter.tot_requests         298140                       # Total number of requests made to the snoop filter.
system.l3bus.snoop_filter.tot_snoops                0                       # Total number of snoops made to the snoop filter.
system.membus.snoop_filter.hit_multi_requests            0                       # Number of requests hitting in the snoop filter with multiple (>1) holders of the requested data.
system.membus.snoop_filter.hit_multi_snoops            0                       # Number of snoops hitting in the snoop filter with multiple (>1) holders of the requested data.
system.membus.snoop_filter.hit_single_requests        48542                       # Number of requests hitting in the snoop filter with a single holder of the requested data.
system.membus.snoop_filter.hit_single_snoops            0                       # Number of snoops hitting in the snoop filter with a single holder of the requested data.
system.membus.snoop_filter.tot_requests        176884                       # Total number of requests made to the snoop filter.
system.membus.snoop_filter.tot_snoops               0                       # Total number of snoops made to the snoop filter.
system.switch_cpus0.cc_regfile_reads        181212617                       # number of cc regfile reads
system.switch_cpus0.cc_regfile_writes        88931865                       # number of cc regfile writes
system.switch_cpus0.committedInsts          221084110                       # Number of Instructions Simulated
system.switch_cpus0.committedOps            398412659                       # Number of Ops (including micro ops) Simulated
system.switch_cpus0.cpi                      0.398528                       # CPI: Cycles Per Instruction
system.switch_cpus0.cpi_total                0.398528                       # CPI: Total CPI of All Threads
system.switch_cpus0.fp_regfile_reads        128956497                       # number of floating regfile reads
system.switch_cpus0.fp_regfile_writes        73915990                       # number of floating regfile writes
system.switch_cpus0.idleCycles                  68313                       # Total number of cycles that the CPU has spent unscheduled due to idling
system.switch_cpus0.iew.branchMispredicts       950673                       # Number of branch mispredicts detected at execute
system.switch_cpus0.iew.exec_branches        40980067                       # Number of branches executed
system.switch_cpus0.iew.exec_nop                    0                       # number of nop insts executed
system.switch_cpus0.iew.exec_rate            4.818457                       # Inst execution rate
system.switch_cpus0.iew.exec_refs           124794857                       # number of memory reference insts executed
system.switch_cpus0.iew.exec_stores          37927155                       # Number of stores executed
system.switch_cpus0.iew.exec_swp                    0                       # number of swp insts executed
system.switch_cpus0.iew.iewBlockCycles        5384075                       # Number of cycles IEW is blocking
system.switch_cpus0.iew.iewDispLoadInsts     91141754                       # Number of dispatched load instructions
system.switch_cpus0.iew.iewDispNonSpecInsts            7                       # Number of dispatched non-speculative instructions
system.switch_cpus0.iew.iewDispSquashedInsts          305                       # Number of squashed instructions skipped by dispatch
system.switch_cpus0.iew.iewDispStoreInsts     40403025                       # Number of dispatched store instructions
system.switch_cpus0.iew.iewDispatchedInsts    444579405                       # Number of instructions dispatched to IQ
system.switch_cpus0.iew.iewExecLoadInsts     86867702                       # Number of load instructions executed
system.switch_cpus0.iew.iewExecSquashedInsts      2608390                       # Number of squashed instructions skipped in execute
system.switch_cpus0.iew.iewExecutedInsts    424545429                       # Number of executed instructions
system.switch_cpus0.iew.iewIQFullEvents          9370                       # Number of times the IQ has become full, causing a stall
system.switch_cpus0.iew.iewIdleCycles               0                       # Number of cycles IEW is idle
system.switch_cpus0.iew.iewLSQFullEvents       155656                       # Number of times the LSQ has become full, causing a stall
system.switch_cpus0.iew.iewSquashCycles        874411                       # Number of cycles IEW is squashing
system.switch_cpus0.iew.iewUnblockCycles       168157                       # Number of cycles IEW is unblocking
system.switch_cpus0.iew.memOrderViolationEvents        16150                       # Number of memory order violations
system.switch_cpus0.iew.predictedNotTakenIncorrect       625024                       # Number of branches that were predicted not taken incorrectly
system.switch_cpus0.iew.predictedTakenIncorrect       325649                       # Number of branches that were predicted taken incorrectly
system.switch_cpus0.iew.wb_consumers        555392898                       # num instructions consuming a value
system.switch_cpus0.iew.wb_count            423013678                       # cumulative count of insts written-back
system.switch_cpus0.iew.wb_fanout            0.567224                       # average fanout of values written-back
system.switch_cpus0.iew.wb_producers        315032216                       # num instructions producing a value
system.switch_cpus0.iew.wb_rate              4.801073                       # insts written-back per cycle
system.switch_cpus0.iew.wb_sent             424110668                       # cumulative count of insts sent to commit
system.switch_cpus0.int_regfile_reads       588777473                       # number of integer regfile reads
system.switch_cpus0.int_regfile_writes      265360029                       # number of integer regfile writes
system.switch_cpus0.ipc                      2.509235                       # IPC: Instructions Per Cycle
system.switch_cpus0.ipc_total                2.509235                       # IPC: Total IPC of All Threads
system.switch_cpus0.iq.FU_type_0::No_OpClass      2312706      0.54%      0.54% # Type of FU issued
system.switch_cpus0.iq.FU_type_0::IntAlu    256304608     60.00%     60.54% # Type of FU issued
system.switch_cpus0.iq.FU_type_0::IntMult       886389      0.21%     60.75% # Type of FU issued
system.switch_cpus0.iq.FU_type_0::IntDiv            0      0.00%     60.75% # Type of FU issued
system.switch_cpus0.iq.FU_type_0::FloatAdd       933853      0.22%     60.97% # Type of FU issued
system.switch_cpus0.iq.FU_type_0::FloatCmp            0      0.00%     60.97% # Type of FU issued
system.switch_cpus0.iq.FU_type_0::FloatCvt            0      0.00%     60.97% # Type of FU issued
system.switch_cpus0.iq.FU_type_0::FloatMult            0      0.00%     60.97% # Type of FU issued
system.switch_cpus0.iq.FU_type_0::FloatMultAcc            0      0.00%     60.97% # Type of FU issued
system.switch_cpus0.iq.FU_type_0::FloatDiv            0      0.00%     60.97% # Type of FU issued
system.switch_cpus0.iq.FU_type_0::FloatMisc            0      0.00%     60.97% # Type of FU issued
system.switch_cpus0.iq.FU_type_0::FloatSqrt            0      0.00%     60.97% # Type of FU issued
system.switch_cpus0.iq.FU_type_0::SimdAdd            0      0.00%     60.97% # Type of FU issued
system.switch_cpus0.iq.FU_type_0::SimdAddAcc            0      0.00%     60.97% # Type of FU issued
system.switch_cpus0.iq.FU_type_0::SimdAlu      2589470      0.61%     61.58% # Type of FU issued
system.switch_cpus0.iq.FU_type_0::SimdCmp            0      0.00%     61.58% # Type of FU issued
system.switch_cpus0.iq.FU_type_0::SimdCvt            0      0.00%     61.58% # Type of FU issued
system.switch_cpus0.iq.FU_type_0::SimdMisc        69344      0.02%     61.59% # Type of FU issued
system.switch_cpus0.iq.FU_type_0::SimdMult            0      0.00%     61.59% # Type of FU issued
system.switch_cpus0.iq.FU_type_0::SimdMultAcc            0      0.00%     61.59% # Type of FU issued
system.switch_cpus0.iq.FU_type_0::SimdShift            0      0.00%     61.59% # Type of FU issued
system.switch_cpus0.iq.FU_type_0::SimdShiftAcc            0      0.00%     61.59% # Type of FU issued
system.switch_cpus0.iq.FU_type_0::SimdDiv            0      0.00%     61.59% # Type of FU issued
system.switch_cpus0.iq.FU_type_0::SimdSqrt            0      0.00%     61.59% # Type of FU issued
system.switch_cpus0.iq.FU_type_0::SimdFloatAdd     15368905      3.60%     65.19% # Type of FU issued
system.switch_cpus0.iq.FU_type_0::SimdFloatAlu            0      0.00%     65.19% # Type of FU issued
system.switch_cpus0.iq.FU_type_0::SimdFloatCmp        53192      0.01%     65.20% # Type of FU issued
system.switch_cpus0.iq.FU_type_0::SimdFloatCvt      6633889      1.55%     66.76% # Type of FU issued
system.switch_cpus0.iq.FU_type_0::SimdFloatDiv       530772      0.12%     66.88% # Type of FU issued
system.switch_cpus0.iq.FU_type_0::SimdFloatMisc            0      0.00%     66.88% # Type of FU issued
system.switch_cpus0.iq.FU_type_0::SimdFloatMult     15256057      3.57%     70.45% # Type of FU issued
system.switch_cpus0.iq.FU_type_0::SimdFloatMultAcc            0      0.00%     70.45% # Type of FU issued
system.switch_cpus0.iq.FU_type_0::SimdFloatSqrt        36482      0.01%     70.46% # Type of FU issued
system.switch_cpus0.iq.FU_type_0::SimdReduceAdd            0      0.00%     70.46% # Type of FU issued
system.switch_cpus0.iq.FU_type_0::SimdReduceAlu            0      0.00%     70.46% # Type of FU issued
system.switch_cpus0.iq.FU_type_0::SimdReduceCmp            0      0.00%     70.46% # Type of FU issued
system.switch_cpus0.iq.FU_type_0::SimdFloatReduceAdd            0      0.00%     70.46% # Type of FU issued
system.switch_cpus0.iq.FU_type_0::SimdFloatReduceCmp            0      0.00%     70.46% # Type of FU issued
system.switch_cpus0.iq.FU_type_0::SimdAes            0      0.00%     70.46% # Type of FU issued
system.switch_cpus0.iq.FU_type_0::SimdAesMix            0      0.00%     70.46% # Type of FU issued
system.switch_cpus0.iq.FU_type_0::SimdSha1Hash            0      0.00%     70.46% # Type of FU issued
system.switch_cpus0.iq.FU_type_0::SimdSha1Hash2            0      0.00%     70.46% # Type of FU issued
system.switch_cpus0.iq.FU_type_0::SimdSha256Hash            0      0.00%     70.46% # Type of FU issued
system.switch_cpus0.iq.FU_type_0::SimdSha256Hash2            0      0.00%     70.46% # Type of FU issued
system.switch_cpus0.iq.FU_type_0::SimdShaSigma2            0      0.00%     70.46% # Type of FU issued
system.switch_cpus0.iq.FU_type_0::SimdShaSigma3            0      0.00%     70.46% # Type of FU issued
system.switch_cpus0.iq.FU_type_0::SimdPredAlu            0      0.00%     70.46% # Type of FU issued
system.switch_cpus0.iq.FU_type_0::MemRead     54634494     12.79%     83.25% # Type of FU issued
system.switch_cpus0.iq.FU_type_0::MemWrite     32410954      7.59%     90.84% # Type of FU issued
system.switch_cpus0.iq.FU_type_0::FloatMemRead     33314783      7.80%     98.64% # Type of FU issued
system.switch_cpus0.iq.FU_type_0::FloatMemWrite      5817921      1.36%    100.00% # Type of FU issued
system.switch_cpus0.iq.FU_type_0::IprAccess            0      0.00%    100.00% # Type of FU issued
system.switch_cpus0.iq.FU_type_0::InstPrefetch            0      0.00%    100.00% # Type of FU issued
system.switch_cpus0.iq.FU_type_0::total     427153819                       # Type of FU issued
system.switch_cpus0.iq.fp_alu_accesses       90760874                       # Number of floating point alu accesses
system.switch_cpus0.iq.fp_inst_queue_reads    177062458                       # Number of floating instruction queue reads
system.switch_cpus0.iq.fp_inst_queue_wakeup_accesses     85047181                       # Number of floating instruction queue wakeup accesses
system.switch_cpus0.iq.fp_inst_queue_writes     95349206                       # Number of floating instruction queue writes
system.switch_cpus0.iq.fu_busy_cnt           12276468                       # FU busy when requested
system.switch_cpus0.iq.fu_busy_rate          0.028740                       # FU busy rate (busy events/executed inst)
system.switch_cpus0.iq.fu_full::No_OpClass            0      0.00%      0.00% # attempts to use FU when none available
system.switch_cpus0.iq.fu_full::IntAlu        3616195     29.46%     29.46% # attempts to use FU when none available
system.switch_cpus0.iq.fu_full::IntMult             0      0.00%     29.46% # attempts to use FU when none available
system.switch_cpus0.iq.fu_full::IntDiv              0      0.00%     29.46% # attempts to use FU when none available
system.switch_cpus0.iq.fu_full::FloatAdd         8581      0.07%     29.53% # attempts to use FU when none available
system.switch_cpus0.iq.fu_full::FloatCmp            0      0.00%     29.53% # attempts to use FU when none available
system.switch_cpus0.iq.fu_full::FloatCvt            0      0.00%     29.53% # attempts to use FU when none available
system.switch_cpus0.iq.fu_full::FloatMult            0      0.00%     29.53% # attempts to use FU when none available
system.switch_cpus0.iq.fu_full::FloatMultAcc            0      0.00%     29.53% # attempts to use FU when none available
system.switch_cpus0.iq.fu_full::FloatDiv            0      0.00%     29.53% # attempts to use FU when none available
system.switch_cpus0.iq.fu_full::FloatMisc            0      0.00%     29.53% # attempts to use FU when none available
system.switch_cpus0.iq.fu_full::FloatSqrt            0      0.00%     29.53% # attempts to use FU when none available
system.switch_cpus0.iq.fu_full::SimdAdd             0      0.00%     29.53% # attempts to use FU when none available
system.switch_cpus0.iq.fu_full::SimdAddAcc            0      0.00%     29.53% # attempts to use FU when none available
system.switch_cpus0.iq.fu_full::SimdAlu        178920      1.46%     30.98% # attempts to use FU when none available
system.switch_cpus0.iq.fu_full::SimdCmp             0      0.00%     30.98% # attempts to use FU when none available
system.switch_cpus0.iq.fu_full::SimdCvt             0      0.00%     30.98% # attempts to use FU when none available
system.switch_cpus0.iq.fu_full::SimdMisc            0      0.00%     30.98% # attempts to use FU when none available
system.switch_cpus0.iq.fu_full::SimdMult            0      0.00%     30.98% # attempts to use FU when none available
system.switch_cpus0.iq.fu_full::SimdMultAcc            0      0.00%     30.98% # attempts to use FU when none available
system.switch_cpus0.iq.fu_full::SimdShift            0      0.00%     30.98% # attempts to use FU when none available
system.switch_cpus0.iq.fu_full::SimdShiftAcc            0      0.00%     30.98% # attempts to use FU when none available
system.switch_cpus0.iq.fu_full::SimdDiv             0      0.00%     30.98% # attempts to use FU when none available
system.switch_cpus0.iq.fu_full::SimdSqrt            0      0.00%     30.98% # attempts to use FU when none available
system.switch_cpus0.iq.fu_full::SimdFloatAdd       441826      3.60%     34.58% # attempts to use FU when none available
system.switch_cpus0.iq.fu_full::SimdFloatAlu            0      0.00%     34.58% # attempts to use FU when none available
system.switch_cpus0.iq.fu_full::SimdFloatCmp            0      0.00%     34.58% # attempts to use FU when none available
system.switch_cpus0.iq.fu_full::SimdFloatCvt        46619      0.38%     34.96% # attempts to use FU when none available
system.switch_cpus0.iq.fu_full::SimdFloatDiv            0      0.00%     34.96% # attempts to use FU when none available
system.switch_cpus0.iq.fu_full::SimdFloatMisc            0      0.00%     34.96% # attempts to use FU when none available
system.switch_cpus0.iq.fu_full::SimdFloatMult       304898      2.48%     37.45% # attempts to use FU when none available
system.switch_cpus0.iq.fu_full::SimdFloatMultAcc            0      0.00%     37.45% # attempts to use FU when none available
system.switch_cpus0.iq.fu_full::SimdFloatSqrt            0      0.00%     37.45% # attempts to use FU when none available
system.switch_cpus0.iq.fu_full::SimdReduceAdd            0      0.00%     37.45% # attempts to use FU when none available
system.switch_cpus0.iq.fu_full::SimdReduceAlu            0      0.00%     37.45% # attempts to use FU when none available
system.switch_cpus0.iq.fu_full::SimdReduceCmp            0      0.00%     37.45% # attempts to use FU when none available
system.switch_cpus0.iq.fu_full::SimdFloatReduceAdd            0      0.00%     37.45% # attempts to use FU when none available
system.switch_cpus0.iq.fu_full::SimdFloatReduceCmp            0      0.00%     37.45% # attempts to use FU when none available
system.switch_cpus0.iq.fu_full::SimdAes             0      0.00%     37.45% # attempts to use FU when none available
system.switch_cpus0.iq.fu_full::SimdAesMix            0      0.00%     37.45% # attempts to use FU when none available
system.switch_cpus0.iq.fu_full::SimdSha1Hash            0      0.00%     37.45% # attempts to use FU when none available
system.switch_cpus0.iq.fu_full::SimdSha1Hash2            0      0.00%     37.45% # attempts to use FU when none available
system.switch_cpus0.iq.fu_full::SimdSha256Hash            0      0.00%     37.45% # attempts to use FU when none available
system.switch_cpus0.iq.fu_full::SimdSha256Hash2            0      0.00%     37.45% # attempts to use FU when none available
system.switch_cpus0.iq.fu_full::SimdShaSigma2            0      0.00%     37.45% # attempts to use FU when none available
system.switch_cpus0.iq.fu_full::SimdShaSigma3            0      0.00%     37.45% # attempts to use FU when none available
system.switch_cpus0.iq.fu_full::SimdPredAlu            0      0.00%     37.45% # attempts to use FU when none available
system.switch_cpus0.iq.fu_full::MemRead       2928002     23.85%     61.30% # attempts to use FU when none available
system.switch_cpus0.iq.fu_full::MemWrite      1041836      8.49%     69.78% # attempts to use FU when none available
system.switch_cpus0.iq.fu_full::FloatMemRead      3204386     26.10%     95.88% # attempts to use FU when none available
system.switch_cpus0.iq.fu_full::FloatMemWrite       505205      4.12%    100.00% # attempts to use FU when none available
system.switch_cpus0.iq.fu_full::IprAccess            0      0.00%    100.00% # attempts to use FU when none available
system.switch_cpus0.iq.fu_full::InstPrefetch            0      0.00%    100.00% # attempts to use FU when none available
system.switch_cpus0.iq.int_alu_accesses     346356707                       # Number of integer alu accesses
system.switch_cpus0.iq.int_inst_queue_reads    778265995                       # Number of integer instruction queue reads
system.switch_cpus0.iq.int_inst_queue_wakeup_accesses    337966497                       # Number of integer instruction queue wakeup accesses
system.switch_cpus0.iq.int_inst_queue_writes    395412896                       # Number of integer instruction queue writes
system.switch_cpus0.iq.iqInstsAdded         444579386                       # Number of instructions added to the IQ (excludes non-spec)
system.switch_cpus0.iq.iqInstsIssued        427153819                       # Number of instructions issued
system.switch_cpus0.iq.iqNonSpecInstsAdded           19                       # Number of non-speculative instructions added to the IQ
system.switch_cpus0.iq.iqSquashedInstsExamined     46166710                       # Number of squashed instructions iterated over during squash; mainly for profiling
system.switch_cpus0.iq.iqSquashedInstsIssued       704499                       # Number of squashed instructions issued
system.switch_cpus0.iq.iqSquashedNonSpecRemoved           19                       # Number of squashed non-spec instructions that were removed
system.switch_cpus0.iq.iqSquashedOperandsExamined     66779085                       # Number of squashed operands that are examined and possibly removed from graph
system.switch_cpus0.iq.issued_per_cycle::samples     88039848                       # Number of insts issued each cycle
system.switch_cpus0.iq.issued_per_cycle::mean     4.851824                       # Number of insts issued each cycle
system.switch_cpus0.iq.issued_per_cycle::stdev     2.683834                       # Number of insts issued each cycle
system.switch_cpus0.iq.issued_per_cycle::underflows            0      0.00%      0.00% # Number of insts issued each cycle
system.switch_cpus0.iq.issued_per_cycle::0     12149122     13.80%     13.80% # Number of insts issued each cycle
system.switch_cpus0.iq.issued_per_cycle::1      2332400      2.65%     16.45% # Number of insts issued each cycle
system.switch_cpus0.iq.issued_per_cycle::2      4561421      5.18%     21.63% # Number of insts issued each cycle
system.switch_cpus0.iq.issued_per_cycle::3      6015615      6.83%     28.46% # Number of insts issued each cycle
system.switch_cpus0.iq.issued_per_cycle::4      8526573      9.68%     38.15% # Number of insts issued each cycle
system.switch_cpus0.iq.issued_per_cycle::5     10842851     12.32%     50.46% # Number of insts issued each cycle
system.switch_cpus0.iq.issued_per_cycle::6     13352368     15.17%     65.63% # Number of insts issued each cycle
system.switch_cpus0.iq.issued_per_cycle::7     12859007     14.61%     80.24% # Number of insts issued each cycle
system.switch_cpus0.iq.issued_per_cycle::8     17400491     19.76%    100.00% # Number of insts issued each cycle
system.switch_cpus0.iq.issued_per_cycle::overflows            0      0.00%    100.00% # Number of insts issued each cycle
system.switch_cpus0.iq.issued_per_cycle::min_value            0                       # Number of insts issued each cycle
system.switch_cpus0.iq.issued_per_cycle::max_value            8                       # Number of insts issued each cycle
system.switch_cpus0.iq.issued_per_cycle::total     88039848                       # Number of insts issued each cycle
system.switch_cpus0.iq.rate                  4.848062                       # Inst issue rate
system.switch_cpus0.iq.vec_alu_accesses             0                       # Number of vector alu accesses
system.switch_cpus0.iq.vec_inst_queue_reads            0                       # Number of vector instruction queue reads
system.switch_cpus0.iq.vec_inst_queue_wakeup_accesses            0                       # Number of vector instruction queue wakeup accesses
system.switch_cpus0.iq.vec_inst_queue_writes            0                       # Number of vector instruction queue writes
system.switch_cpus0.memDep0.conflictingLoads      4673263                       # Number of conflicting loads.
system.switch_cpus0.memDep0.conflictingStores      2212921                       # Number of conflicting stores.
system.switch_cpus0.memDep0.insertedLoads     91141754                       # Number of loads inserted to the mem dependence unit.
system.switch_cpus0.memDep0.insertedStores     40403025                       # Number of stores inserted to the mem dependence unit.
system.switch_cpus0.misc_regfile_reads      209342830                       # number of misc regfile reads
system.switch_cpus0.misc_regfile_writes             1                       # number of misc regfile writes
system.switch_cpus0.numCycles                88108161                       # number of cpu cycles simulated
system.switch_cpus0.numWorkItemsCompleted            0                       # number of work items this cpu completed
system.switch_cpus0.numWorkItemsStarted             0                       # number of work items this cpu started
system.switch_cpus0.timesIdled                    295                       # Number of times that the entire CPU went into an idle state and unscheduled itself
system.switch_cpus1.cc_regfile_reads         68027505                       # number of cc regfile reads
system.switch_cpus1.cc_regfile_writes       167402048                       # number of cc regfile writes
system.switch_cpus1.committedInsts          164757748                       # Number of Instructions Simulated
system.switch_cpus1.committedOps            218884542                       # Number of Ops (including micro ops) Simulated
system.switch_cpus1.cpi                      0.534774                       # CPI: Cycles Per Instruction
system.switch_cpus1.cpi_total                0.534774                       # CPI: Total CPI of All Threads
system.switch_cpus1.fp_regfile_reads             2173                       # number of floating regfile reads
system.switch_cpus1.fp_regfile_writes             271                       # number of floating regfile writes
system.switch_cpus1.idleCycles                  50943                       # Total number of cycles that the CPU has spent unscheduled due to idling
system.switch_cpus1.iew.branchMispredicts        60685                       # Number of branch mispredicts detected at execute
system.switch_cpus1.iew.exec_branches         6386929                       # Number of branches executed
system.switch_cpus1.iew.exec_nop                    0                       # number of nop insts executed
system.switch_cpus1.iew.exec_rate            2.507382                       # Inst execution rate
system.switch_cpus1.iew.exec_refs            49266021                       # number of memory reference insts executed
system.switch_cpus1.iew.exec_stores           9811416                       # Number of stores executed
system.switch_cpus1.iew.exec_swp                    0                       # number of swp insts executed
system.switch_cpus1.iew.iewBlockCycles        8500991                       # Number of cycles IEW is blocking
system.switch_cpus1.iew.iewDispLoadInsts     39762305                       # Number of dispatched load instructions
system.switch_cpus1.iew.iewDispNonSpecInsts            0                       # Number of dispatched non-speculative instructions
system.switch_cpus1.iew.iewDispSquashedInsts         2403                       # Number of squashed instructions skipped by dispatch
system.switch_cpus1.iew.iewDispStoreInsts      9988997                       # Number of dispatched store instructions
system.switch_cpus1.iew.iewDispatchedInsts    222742244                       # Number of instructions dispatched to IQ
system.switch_cpus1.iew.iewExecLoadInsts     39454605                       # Number of load instructions executed
system.switch_cpus1.iew.iewExecSquashedInsts       145176                       # Number of squashed instructions skipped in execute
system.switch_cpus1.iew.iewExecutedInsts    220920815                       # Number of executed instructions
system.switch_cpus1.iew.iewIQFullEvents         11403                       # Number of times the IQ has become full, causing a stall
system.switch_cpus1.iew.iewIdleCycles               0                       # Number of cycles IEW is idle
system.switch_cpus1.iew.iewLSQFullEvents       171234                       # Number of times the LSQ has become full, causing a stall
system.switch_cpus1.iew.iewSquashCycles         60300                       # Number of cycles IEW is squashing
system.switch_cpus1.iew.iewUnblockCycles       201458                       # Number of cycles IEW is unblocking
system.switch_cpus1.iew.memOrderViolationEvents         4117                       # Number of memory order violations
system.switch_cpus1.iew.predictedNotTakenIncorrect        31662                       # Number of branches that were predicted not taken incorrectly
system.switch_cpus1.iew.predictedTakenIncorrect        29023                       # Number of branches that were predicted taken incorrectly
system.switch_cpus1.iew.wb_consumers        368000534                       # num instructions consuming a value
system.switch_cpus1.iew.wb_count            220812710                       # cumulative count of insts written-back
system.switch_cpus1.iew.wb_fanout            0.523289                       # average fanout of values written-back
system.switch_cpus1.iew.wb_producers        192570572                       # num instructions producing a value
system.switch_cpus1.iew.wb_rate              2.506155                       # insts written-back per cycle
system.switch_cpus1.iew.wb_sent             220873212                       # cumulative count of insts sent to commit
system.switch_cpus1.int_regfile_reads       437248564                       # number of integer regfile reads
system.switch_cpus1.int_regfile_writes      204746149                       # number of integer regfile writes
system.switch_cpus1.ipc                      1.869949                       # IPC: Instructions Per Cycle
system.switch_cpus1.ipc_total                1.869949                       # IPC: Total IPC of All Threads
system.switch_cpus1.iq.FU_type_0::No_OpClass       454178      0.21%      0.21% # Type of FU issued
system.switch_cpus1.iq.FU_type_0::IntAlu    170679949     77.21%     77.41% # Type of FU issued
system.switch_cpus1.iq.FU_type_0::IntMult       577389      0.26%     77.67% # Type of FU issued
system.switch_cpus1.iq.FU_type_0::IntDiv           53      0.00%     77.67% # Type of FU issued
system.switch_cpus1.iq.FU_type_0::FloatAdd           31      0.00%     77.67% # Type of FU issued
system.switch_cpus1.iq.FU_type_0::FloatCmp            0      0.00%     77.67% # Type of FU issued
system.switch_cpus1.iq.FU_type_0::FloatCvt            0      0.00%     77.67% # Type of FU issued
system.switch_cpus1.iq.FU_type_0::FloatMult            0      0.00%     77.67% # Type of FU issued
system.switch_cpus1.iq.FU_type_0::FloatMultAcc            0      0.00%     77.67% # Type of FU issued
system.switch_cpus1.iq.FU_type_0::FloatDiv            0      0.00%     77.67% # Type of FU issued
system.switch_cpus1.iq.FU_type_0::FloatMisc            0      0.00%     77.67% # Type of FU issued
system.switch_cpus1.iq.FU_type_0::FloatSqrt            0      0.00%     77.67% # Type of FU issued
system.switch_cpus1.iq.FU_type_0::SimdAdd            0      0.00%     77.67% # Type of FU issued
system.switch_cpus1.iq.FU_type_0::SimdAddAcc            0      0.00%     77.67% # Type of FU issued
system.switch_cpus1.iq.FU_type_0::SimdAlu           17      0.00%     77.67% # Type of FU issued
system.switch_cpus1.iq.FU_type_0::SimdCmp            0      0.00%     77.67% # Type of FU issued
system.switch_cpus1.iq.FU_type_0::SimdCvt            0      0.00%     77.67% # Type of FU issued
system.switch_cpus1.iq.FU_type_0::SimdMisc           44      0.00%     77.67% # Type of FU issued
system.switch_cpus1.iq.FU_type_0::SimdMult            0      0.00%     77.67% # Type of FU issued
system.switch_cpus1.iq.FU_type_0::SimdMultAcc            0      0.00%     77.67% # Type of FU issued
system.switch_cpus1.iq.FU_type_0::SimdShift            0      0.00%     77.67% # Type of FU issued
system.switch_cpus1.iq.FU_type_0::SimdShiftAcc            0      0.00%     77.67% # Type of FU issued
system.switch_cpus1.iq.FU_type_0::SimdDiv            0      0.00%     77.67% # Type of FU issued
system.switch_cpus1.iq.FU_type_0::SimdSqrt            0      0.00%     77.67% # Type of FU issued
system.switch_cpus1.iq.FU_type_0::SimdFloatAdd            9      0.00%     77.67% # Type of FU issued
system.switch_cpus1.iq.FU_type_0::SimdFloatAlu            0      0.00%     77.67% # Type of FU issued
system.switch_cpus1.iq.FU_type_0::SimdFloatCmp            0      0.00%     77.67% # Type of FU issued
system.switch_cpus1.iq.FU_type_0::SimdFloatCvt           47      0.00%     77.67% # Type of FU issued
system.switch_cpus1.iq.FU_type_0::SimdFloatDiv           11      0.00%     77.67% # Type of FU issued
system.switch_cpus1.iq.FU_type_0::SimdFloatMisc            0      0.00%     77.67% # Type of FU issued
system.switch_cpus1.iq.FU_type_0::SimdFloatMult           12      0.00%     77.67% # Type of FU issued
system.switch_cpus1.iq.FU_type_0::SimdFloatMultAcc            0      0.00%     77.67% # Type of FU issued
system.switch_cpus1.iq.FU_type_0::SimdFloatSqrt            2      0.00%     77.67% # Type of FU issued
system.switch_cpus1.iq.FU_type_0::SimdReduceAdd            0      0.00%     77.67% # Type of FU issued
system.switch_cpus1.iq.FU_type_0::SimdReduceAlu            0      0.00%     77.67% # Type of FU issued
system.switch_cpus1.iq.FU_type_0::SimdReduceCmp            0      0.00%     77.67% # Type of FU issued
system.switch_cpus1.iq.FU_type_0::SimdFloatReduceAdd            0      0.00%     77.67% # Type of FU issued
system.switch_cpus1.iq.FU_type_0::SimdFloatReduceCmp            0      0.00%     77.67% # Type of FU issued
system.switch_cpus1.iq.FU_type_0::SimdAes            0      0.00%     77.67% # Type of FU issued
[...]
system.switch_cpus3.commit.numCommittedDist::1     15766239     20.89%     50.17% # Number of insts commited each cycle
system.switch_cpus3.commit.numCommittedDist::2      8666545     11.48%     61.65% # Number of insts commited each cycle
system.switch_cpus3.commit.numCommittedDist::3      7916704     10.49%     72.14% # Number of insts commited each cycle
system.switch_cpus3.commit.numCommittedDist::4      4279423      5.67%     77.81% # Number of insts commited each cycle
system.switch_cpus3.commit.numCommittedDist::5      2112017      2.80%     80.61% # Number of insts commited each cycle
system.switch_cpus3.commit.numCommittedDist::6      1565532      2.07%     82.68% # Number of insts commited each cycle
system.switch_cpus3.commit.numCommittedDist::7      1248009      1.65%     84.33% # Number of insts commited each cycle
system.switch_cpus3.commit.numCommittedDist::8     11826319     15.67%    100.00% # Number of insts commited each cycle
system.switch_cpus3.commit.numCommittedDist::overflows            0      0.00%    100.00% # Number of insts commited each cycle
system.switch_cpus3.commit.numCommittedDist::min_value            0                       # Number of insts commited each cycle
system.switch_cpus3.commit.numCommittedDist::max_value            8                       # Number of insts commited each cycle
system.switch_cpus3.commit.numCommittedDist::total     75486270                       # Number of insts commited each cycle
system.switch_cpus3.commit.instsCommitted    121867719                       # Number of instructions committed
system.switch_cpus3.commit.opsCommitted     197267025                       # Number of ops (including micro ops) committed
system.switch_cpus3.commit.memRefs           44458188                       # Number of memory references committed
system.switch_cpus3.commit.loads             30334260                       # Number of loads committed
system.switch_cpus3.commit.amos                     0                       # Number of atomic instructions committed
system.switch_cpus3.commit.membars                  0                       # Number of memory barriers committed
system.switch_cpus3.commit.branches          17984569                       # Number of branches committed
system.switch_cpus3.commit.vector                   0                       # Number of committed Vector instructions.
system.switch_cpus3.commit.floating            217948                       # Number of committed floating point instructions.
system.switch_cpus3.commit.integer          196569535                       # Number of committed integer instructions.
system.switch_cpus3.commit.functionCalls      2395024                       # Number of function calls committed.
system.switch_cpus3.commit.committedInstType_0::No_OpClass       452963      0.23%      0.23% # Class of committed instruction
system.switch_cpus3.commit.committedInstType_0::IntAlu    150269619     76.18%     76.41% # Class of committed instruction
system.switch_cpus3.commit.committedInstType_0::IntMult      1679873      0.85%     77.26% # Class of committed instruction
system.switch_cpus3.commit.committedInstType_0::IntDiv       406310      0.21%     77.46% # Class of committed instruction
system.switch_cpus3.commit.committedInstType_0::FloatAdd            4      0.00%     77.46% # Class of committed instruction
system.switch_cpus3.commit.committedInstType_0::FloatCmp            0      0.00%     77.46% # Class of committed instruction
system.switch_cpus3.commit.committedInstType_0::FloatCvt            0      0.00%     77.46% # Class of committed instruction
system.switch_cpus3.commit.committedInstType_0::FloatMult            0      0.00%     77.46% # Class of committed instruction
system.switch_cpus3.commit.committedInstType_0::FloatMultAcc            0      0.00%     77.46% # Class of committed instruction
system.switch_cpus3.commit.committedInstType_0::FloatDiv            0      0.00%     77.46% # Class of committed instruction
system.switch_cpus3.commit.committedInstType_0::FloatMisc            0      0.00%     77.46% # Class of committed instruction
system.switch_cpus3.commit.committedInstType_0::FloatSqrt            0      0.00%     77.46% # Class of committed instruction
system.switch_cpus3.commit.committedInstType_0::SimdAdd            0      0.00%     77.46% # Class of committed instruction
system.switch_cpus3.commit.committedInstType_0::SimdAddAcc            0      0.00%     77.46% # Class of committed instruction
system.switch_cpus3.commit.committedInstType_0::SimdAlu           16      0.00%     77.46% # Class of committed instruction
system.switch_cpus3.commit.committedInstType_0::SimdCmp            0      0.00%     77.46% # Class of committed instruction
system.switch_cpus3.commit.committedInstType_0::SimdCvt           16      0.00%     77.46% # Class of committed instruction
system.switch_cpus3.commit.committedInstType_0::SimdMisc           36      0.00%     77.46% # Class of committed instruction
system.switch_cpus3.commit.committedInstType_0::SimdMult            0      0.00%     77.46% # Class of committed instruction
system.switch_cpus3.commit.committedInstType_0::SimdMultAcc            0      0.00%     77.46% # Class of committed instruction
system.switch_cpus3.commit.committedInstType_0::SimdShift            0      0.00%     77.46% # Class of committed instruction
system.switch_cpus3.commit.committedInstType_0::SimdShiftAcc            0      0.00%     77.46% # Class of committed instruction
system.switch_cpus3.commit.committedInstType_0::SimdDiv            0      0.00%     77.46% # Class of committed instruction
system.switch_cpus3.commit.committedInstType_0::SimdSqrt            0      0.00%     77.46% # Class of committed instruction
system.switch_cpus3.commit.committedInstType_0::SimdFloatAdd            0      0.00%     77.46% # Class of committed instruction
system.switch_cpus3.commit.committedInstType_0::SimdFloatAlu            0      0.00%     77.46% # Class of committed instruction
system.switch_cpus3.commit.committedInstType_0::SimdFloatCmp            0      0.00%     77.46% # Class of committed instruction
system.switch_cpus3.commit.committedInstType_0::SimdFloatCvt            0      0.00%     77.46% # Class of committed instruction
system.switch_cpus3.commit.committedInstType_0::SimdFloatDiv            0      0.00%     77.46% # Class of committed instruction
system.switch_cpus3.commit.committedInstType_0::SimdFloatMisc            0      0.00%     77.46% # Class of committed instruction
system.switch_cpus3.commit.committedInstType_0::SimdFloatMult            0      0.00%     77.46% # Class of committed instruction
system.switch_cpus3.commit.committedInstType_0::SimdFloatMultAcc            0      0.00%     77.46% # Class of committed instruction
system.switch_cpus3.commit.committedInstType_0::SimdFloatSqrt            0      0.00%     77.46% # Class of committed instruction
system.switch_cpus3.commit.committedInstType_0::SimdReduceAdd            0      0.00%     77.46% # Class of committed instruction
system.switch_cpus3.commit.committedInstType_0::SimdReduceAlu            0      0.00%     77.46% # Class of committed instruction
system.switch_cpus3.commit.committedInstType_0::SimdReduceCmp            0      0.00%     77.46% # Class of committed instruction
system.switch_cpus3.commit.committedInstType_0::SimdFloatReduceAdd            0      0.00%     77.46% # Class of committed instruction
system.switch_cpus3.commit.committedInstType_0::SimdFloatReduceCmp            0      0.00%     77.46% # Class of committed instruction
system.switch_cpus3.commit.committedInstType_0::SimdAes            0      0.00%     77.46% # Class of committed instruction
system.switch_cpus3.commit.committedInstType_0::SimdAesMix            0      0.00%     77.46% # Class of committed instruction
system.switch_cpus3.commit.committedInstType_0::SimdSha1Hash            0      0.00%     77.46% # Class of committed instruction
system.switch_cpus3.commit.committedInstType_0::SimdSha1Hash2            0      0.00%     77.46% # Class of committed instruction
system.switch_cpus3.commit.committedInstType_0::SimdSha256Hash            0      0.00%     77.46% # Class of committed instruction
system.switch_cpus3.commit.committedInstType_0::SimdSha256Hash2            0      0.00%     77.46% # Class of committed instruction
system.switch_cpus3.commit.committedInstType_0::SimdShaSigma2            0      0.00%     77.46% # Class of committed instruction
system.switch_cpus3.commit.committedInstType_0::SimdShaSigma3            0      0.00%     77.46% # Class of committed instruction
system.switch_cpus3.commit.committedInstType_0::SimdPredAlu            0      0.00%     77.46% # Class of committed instruction
system.switch_cpus3.commit.committedInstType_0::MemRead     30225324     15.32%     92.78% # Class of committed instruction
system.switch_cpus3.commit.committedInstType_0::MemWrite     14015000      7.10%     99.89% # Class of committed instruction
system.switch_cpus3.commit.committedInstType_0::FloatMemRead       108936      0.06%     99.94% # Class of committed instruction
system.switch_cpus3.commit.committedInstType_0::FloatMemWrite       108928      0.06%    100.00% # Class of committed instruction
system.switch_cpus3.commit.committedInstType_0::IprAccess            0      0.00%    100.00% # Class of committed instruction
system.switch_cpus3.commit.committedInstType_0::InstPrefetch            0      0.00%    100.00% # Class of committed instruction
system.switch_cpus3.commit.committedInstType_0::total    197267025                       # Class of committed instruction
system.switch_cpus3.commit.commitEligibleSamples     11826319                       # number cycles where commit BW limit reached
system.switch_cpus3.decode.idleCycles         8746010                       # Number of cycles decode is idle
system.switch_cpus3.decode.blockedCycles     34392871                       # Number of cycles decode is blocked
system.switch_cpus3.decode.runCycles         32455633                       # Number of cycles decode is running
system.switch_cpus3.decode.unblockCycles     10944595                       # Number of cycles decode is unblocking
system.switch_cpus3.decode.squashCycles       1424727                       # Number of cycles decode is squashing
system.switch_cpus3.decode.branchResolved     15006218                       # Number of times decode resolved a  branch
system.switch_cpus3.decode.branchMispred       117861                       # Number of times decode detected a branch misprediction
system.switch_cpus3.decode.decodedInsts     312334936                       # Number of instructions handled by decode
system.switch_cpus3.decode.squashedInsts       554334                       # Number of squashed instructions handled by decode
system.switch_cpus3.dtb.rdAccesses           38657628                       # TLB accesses on read requests
system.switch_cpus3.dtb.wrAccesses           17025993                       # TLB accesses on write requests
system.switch_cpus3.dtb.rdMisses                26868                       # TLB misses on read requests
system.switch_cpus3.dtb.wrMisses                  795                       # TLB misses on write requests
system.switch_cpus3.dtb.walker.power_state.pwrStateResidencyTicks::UNDEFINED 14052318888393                       # Cumulative time (in ticks) in various power states
system.switch_cpus3.fetch.icacheStallCycles      2554132                       # Number of cycles fetch is stalled on an Icache miss
system.switch_cpus3.fetch.insts             211997120                       # Number of instructions fetch has processed
system.switch_cpus3.fetch.branches           31743461                       # Number of branches that fetch encountered
system.switch_cpus3.fetch.predictedBranches     20382458                       # Number of branches that fetch has predicted taken
system.switch_cpus3.fetch.cycles             83870118                       # Number of cycles fetch has run and was not squashing or blocked
system.switch_cpus3.fetch.squashCycles        3079094                       # Number of cycles fetch has spent squashing
system.switch_cpus3.fetch.miscStallCycles            9                       # Number of cycles fetch has spent waiting on interrupts,or bad addresses, or out of MSHRs
system.switch_cpus3.fetch.pendingTrapStallCycles           42                       # Number of stall cycles due to pending traps
system.switch_cpus3.fetch.cacheLines         31852230                       # Number of cache lines fetched
system.switch_cpus3.fetch.icacheSquashes        36762                       # Number of outstanding Icache misses that were squashed
system.switch_cpus3.fetch.nisnDist::samples     87963848                       # Number of instructions fetched each cycle (Total)
system.switch_cpus3.fetch.nisnDist::mean     3.892589                       # Number of instructions fetched each cycle (Total)
system.switch_cpus3.fetch.nisnDist::stdev     3.348134                       # Number of instructions fetched each cycle (Total)
system.switch_cpus3.fetch.nisnDist::underflows            0      0.00%      0.00% # Number of instructions fetched each cycle (Total)
system.switch_cpus3.fetch.nisnDist::0        28727604     32.66%     32.66% # Number of instructions fetched each cycle (Total)
system.switch_cpus3.fetch.nisnDist::1         4306216      4.90%     37.55% # Number of instructions fetched each cycle (Total)
system.switch_cpus3.fetch.nisnDist::2         4244163      4.82%     42.38% # Number of instructions fetched each cycle (Total)
system.switch_cpus3.fetch.nisnDist::3         3915623      4.45%     46.83% # Number of instructions fetched each cycle (Total)
system.switch_cpus3.fetch.nisnDist::4         4293546      4.88%     51.71% # Number of instructions fetched each cycle (Total)
system.switch_cpus3.fetch.nisnDist::5         8747154      9.94%     61.66% # Number of instructions fetched each cycle (Total)
system.switch_cpus3.fetch.nisnDist::6         4772057      5.43%     67.08% # Number of instructions fetched each cycle (Total)
system.switch_cpus3.fetch.nisnDist::7         3336481      3.79%     70.87% # Number of instructions fetched each cycle (Total)
system.switch_cpus3.fetch.nisnDist::8        25621004     29.13%    100.00% # Number of instructions fetched each cycle (Total)
system.switch_cpus3.fetch.nisnDist::overflows            0      0.00%    100.00% # Number of instructions fetched each cycle (Total)
system.switch_cpus3.fetch.nisnDist::min_value            0                       # Number of instructions fetched each cycle (Total)
system.switch_cpus3.fetch.nisnDist::max_value            8                       # Number of instructions fetched each cycle (Total)
system.switch_cpus3.fetch.nisnDist::total     87963848                       # Number of instructions fetched each cycle (Total)
system.switch_cpus3.fetch.branchRate         0.360278                       # Number of branch fetches per cycle
system.switch_cpus3.fetch.rate               2.406101                       # Number of inst fetches per cycle
system.switch_cpus3.itb.rdAccesses                  0                       # TLB accesses on read requests
system.switch_cpus3.itb.wrAccesses           31852239                       # TLB accesses on write requests
system.switch_cpus3.itb.rdMisses                    0                       # TLB misses on read requests
system.switch_cpus3.itb.wrMisses                   47                       # TLB misses on write requests
system.switch_cpus3.itb.walker.power_state.pwrStateResidencyTicks::UNDEFINED 14052318888393                       # Cumulative time (in ticks) in various power states
system.switch_cpus3.lsq0.forwLoads            6323274                       # Number of loads that had data forwarded from stores
system.switch_cpus3.lsq0.squashedLoads       14253823                       # Number of loads squashed
system.switch_cpus3.lsq0.ignoredResponses        21314                       # Number of memory responses ignored because the instruction is squashed
system.switch_cpus3.lsq0.memOrderViolation        52797                       # Number of memory ordering violations
system.switch_cpus3.lsq0.squashedStores       6325454                       # Number of stores squashed
system.switch_cpus3.lsq0.rescheduledLoads         2494                       # Number of loads that were rescheduled
system.switch_cpus3.lsq0.blockedByCache             1                       # Number of times an access to memory failed due to the cache being blocked
system.switch_cpus3.power_state.pwrStateResidencyTicks::OFF  29340028269                       # Cumulative time (in ticks) in various power states
system.switch_cpus3.rename.squashCycles       1424727                       # Number of cycles rename is squashing
system.switch_cpus3.rename.idleCycles        13156154                       # Number of cycles rename is idle
system.switch_cpus3.rename.blockCycles       18491879                       # Number of cycles rename is blocking
system.switch_cpus3.rename.serializeStallCycles            0                       # count of cycles rename stalledfor serializing inst
system.switch_cpus3.rename.runCycles         38772426                       # Number of cycles rename is running
system.switch_cpus3.rename.unblockCycles     16118650                       # Number of cycles rename is unblocking
system.switch_cpus3.rename.renamedInsts     304074999                       # Number of instructions processed by rename
system.switch_cpus3.rename.ROBFullEvents       304097                       # Number of times rename has blocked due to ROB full
system.switch_cpus3.rename.IQFullEvents      12940507                       # Number of times rename has blocked due to IQ full
system.switch_cpus3.rename.LQFullEvents        620220                       # Number of times rename has blocked due to LQ full
system.switch_cpus3.rename.SQFullEvents        160201                       # Number of times rename has blocked due to SQ full
system.switch_cpus3.rename.fullRegistersEvents           83                       # Number of times there has been no free registers
system.switch_cpus3.rename.renamedOperands    393064541                       # Number of destination operands rename has renamed
system.switch_cpus3.rename.lookups          775864427                       # Number of register rename lookups that rename has made
system.switch_cpus3.rename.intLookups       494050377                       # Number of integer rename lookups
system.switch_cpus3.rename.fpLookups           150888                       # Number of floating rename lookups
system.switch_cpus3.rename.committedMaps    255620629                       # Number of HB maps that are committed
system.switch_cpus3.rename.undoneMaps       137443867                       # Number of HB maps that are undone due to squashing
system.switch_cpus3.rename.serializing              0                       # count of serializing insts renamed
system.switch_cpus3.rename.tempSerializing            0                       # count of temporary serializing insts renamed
system.switch_cpus3.rename.skidInsts         41933050                       # count of insts added to the skid buffer
system.switch_cpus3.rob.reads               353500540                       # The number of ROB reads
system.switch_cpus3.rob.writes              592197122                       # The number of ROB writes
system.switch_cpus3.thread0.numInsts        121867719                       # Number of Instructions committed
system.switch_cpus3.thread0.numOps          197267025                       # Number of Ops committed
system.switch_cpus3.thread0.numMemRefs              0                       # Number of Memory References
system.voltage_domain.voltage                       1                       # Voltage in Volts

---------- End Simulation Statistics   ----------
