
---------- Begin Simulation Statistics ----------
final_tick                               13750563096576                       # Number of ticks from beginning of simulation (restored from checkpoints and never reset)
host_inst_rate                                  95275                       # Simulator instruction rate (inst/s)
host_mem_usage                               17162700                       # Number of bytes of host memory used
host_op_rate                                   156153                       # Simulator op (including micro ops) rate (op/s)
host_seconds                                  8239.54                       # Real time elapsed on the host
host_tick_rate                                3824304                       # Simulator tick rate (ticks/s)
sim_freq                                 1000000000000                       # Frequency of simulated ticks
sim_insts                                   785023984                       # Number of instructions simulated
sim_ops                                    1286630612                       # Number of ops (including micro ops) simulated
sim_seconds                                  0.031511                       # Number of seconds simulated
sim_ticks                                 31510500291                       # Number of ticks simulated
system.cpu0.Branches                                2                       # Number of branches fetched
system.cpu0.committedInsts                         11                       # Number of instructions committed
system.cpu0.committedOps                           27                       # Number of ops (including micro ops) committed
system.cpu0.idle_fraction                           0                       # Percentage of idle cycles
system.cpu0.l2bus.snoop_filter.hit_multi_requests            0                       # Number of requests hitting in the snoop filter with multiple (>1) holders of the requested data.
system.cpu0.l2bus.snoop_filter.hit_multi_snoops            0                       # Number of snoops hitting in the snoop filter with multiple (>1) holders of the requested data.
system.cpu0.l2bus.snoop_filter.hit_single_requests      1108136                       # Number of requests hitting in the snoop filter with a single holder of the requested data.
system.cpu0.l2bus.snoop_filter.hit_single_snoops          246                       # Number of snoops hitting in the snoop filter with a single holder of the requested data.
system.cpu0.l2bus.snoop_filter.tot_requests      2215791                       # Total number of requests made to the snoop filter.
system.cpu0.l2bus.snoop_filter.tot_snoops          246                       # Total number of snoops made to the snoop filter.
system.cpu0.mmucache.mmubus.snoop_filter.hit_multi_requests            0                       # Number of requests hitting in the snoop filter with multiple (>1) holders of the requested data.
system.cpu0.mmucache.mmubus.snoop_filter.hit_multi_snoops            0                       # Number of snoops hitting in the snoop filter with multiple (>1) holders of the requested data.
system.cpu0.mmucache.mmubus.snoop_filter.hit_single_requests            0                       # Number of requests hitting in the snoop filter with a single holder of the requested data.
system.cpu0.mmucache.mmubus.snoop_filter.hit_single_snoops            0                       # Number of snoops hitting in the snoop filter with a single holder of the requested data.
system.cpu0.mmucache.mmubus.snoop_filter.tot_requests            0                       # Total number of requests made to the snoop filter.
system.cpu0.mmucache.mmubus.snoop_filter.tot_snoops            0                       # Total number of snoops made to the snoop filter.
system.cpu0.not_idle_fraction                       1                       # Percentage of non-idle cycles
system.cpu0.numCycles                              33                       # number of cpu cycles simulated
system.cpu0.numWorkItemsCompleted                   0                       # number of work items this cpu completed
system.cpu0.numWorkItemsStarted                     0                       # number of work items this cpu started
system.cpu0.num_busy_cycles                        33                       # Number of busy cycles
system.cpu0.num_cc_register_reads                   6                       # number of times the CC registers were read
system.cpu0.num_cc_register_writes                  4                       # number of times the CC registers were written
system.cpu0.num_conditional_control_insts            1                       # number of instructions that are conditional controls
system.cpu0.num_fp_alu_accesses                     8                       # Number of float alu accesses
system.cpu0.num_fp_insts                            8                       # number of float instructions
system.cpu0.num_fp_register_reads                   8                       # number of times the floating registers were read
system.cpu0.num_fp_register_writes                  8                       # number of times the floating registers were written
system.cpu0.num_func_calls                          1                       # number of times a function call or return occured
system.cpu0.num_idle_cycles                         0                       # Number of idle cycles
system.cpu0.num_int_alu_accesses                   21                       # Number of integer alu accesses
system.cpu0.num_int_insts                          21                       # number of integer instructions
system.cpu0.num_int_register_reads                 42                       # number of times the integer registers were read
system.cpu0.num_int_register_writes                17                       # number of times the integer registers were written
system.cpu0.num_load_insts                          7                       # Number of load instructions
system.cpu0.num_mem_refs                            7                       # number of memory refs
system.cpu0.num_store_insts                         0                       # Number of store instructions
system.cpu0.num_vec_alu_accesses                    0                       # Number of vector alu accesses
system.cpu0.num_vec_insts                           0                       # number of vector instructions
system.cpu0.num_vec_register_reads                  0                       # number of times the vector registers were read
system.cpu0.num_vec_register_writes                 0                       # number of times the vector registers were written
system.cpu0.op_class::No_OpClass                    0      0.00%      0.00% # Class of executed instruction
system.cpu0.op_class::IntAlu                       18     66.67%     66.67% # Class of executed instruction
system.cpu0.op_class::IntMult                       0      0.00%     66.67% # Class of executed instruction
system.cpu0.op_class::IntDiv                        0      0.00%     66.67% # Class of executed instruction
system.cpu0.op_class::FloatAdd                      2      7.41%     74.07% # Class of executed instruction
system.cpu0.op_class::FloatCmp                      0      0.00%     74.07% # Class of executed instruction
system.cpu0.op_class::FloatCvt                      0      0.00%     74.07% # Class of executed instruction
system.cpu0.op_class::FloatMult                     0      0.00%     74.07% # Class of executed instruction
system.cpu0.op_class::FloatMultAcc                  0      0.00%     74.07% # Class of executed instruction
system.cpu0.op_class::FloatDiv                      0      0.00%     74.07% # Class of executed instruction
system.cpu0.op_class::FloatMisc                     0      0.00%     74.07% # Class of executed instruction
system.cpu0.op_class::FloatSqrt                     0      0.00%     74.07% # Class of executed instruction
system.cpu0.op_class::SimdAdd                       0      0.00%     74.07% # Class of executed instruction
system.cpu0.op_class::SimdAddAcc                    0      0.00%     74.07% # Class of executed instruction
system.cpu0.op_class::SimdAlu                       0      0.00%     74.07% # Class of executed instruction
system.cpu0.op_class::SimdCmp                       0      0.00%     74.07% # Class of executed instruction
system.cpu0.op_class::SimdCvt                       0      0.00%     74.07% # Class of executed instruction
system.cpu0.op_class::SimdMisc                      0      0.00%     74.07% # Class of executed instruction
system.cpu0.op_class::SimdMult                      0      0.00%     74.07% # Class of executed instruction
system.cpu0.op_class::SimdMultAcc                   0      0.00%     74.07% # Class of executed instruction
system.cpu0.op_class::SimdShift                     0      0.00%     74.07% # Class of executed instruction
system.cpu0.op_class::SimdShiftAcc                  0      0.00%     74.07% # Class of executed instruction
system.cpu0.op_class::SimdDiv                       0      0.00%     74.07% # Class of executed instruction
system.cpu0.op_class::SimdSqrt                      0      0.00%     74.07% # Class of executed instruction
system.cpu0.op_class::SimdFloatAdd                  0      0.00%     74.07% # Class of executed instruction
system.cpu0.op_class::SimdFloatAlu                  0      0.00%     74.07% # Class of executed instruction
system.cpu0.op_class::SimdFloatCmp                  0      0.00%     74.07% # Class of executed instruction
system.cpu0.op_class::SimdFloatCvt                  0      0.00%     74.07% # Class of executed instruction
system.cpu0.op_class::SimdFloatDiv                  0      0.00%     74.07% # Class of executed instruction
system.cpu0.op_class::SimdFloatMisc                 0      0.00%     74.07% # Class of executed instruction
system.cpu0.op_class::SimdFloatMult                 0      0.00%     74.07% # Class of executed instruction
system.cpu0.op_class::SimdFloatMultAcc              0      0.00%     74.07% # Class of executed instruction
system.cpu0.op_class::SimdFloatSqrt                 0      0.00%     74.07% # Class of executed instruction
system.cpu0.op_class::SimdReduceAdd                 0      0.00%     74.07% # Class of executed instruction
system.cpu0.op_class::SimdReduceAlu                 0      0.00%     74.07% # Class of executed instruction
system.cpu0.op_class::SimdReduceCmp                 0      0.00%     74.07% # Class of executed instruction
system.cpu0.op_class::SimdFloatReduceAdd            0      0.00%     74.07% # Class of executed instruction
system.cpu0.op_class::SimdFloatReduceCmp            0      0.00%     74.07% # Class of executed instruction
system.cpu0.op_class::SimdAes                       0      0.00%     74.07% # Class of executed instruction
system.cpu0.op_class::SimdAesMix                    0      0.00%     74.07% # Class of executed instruction
system.cpu0.op_class::SimdSha1Hash                  0      0.00%     74.07% # Class of executed instruction
system.cpu0.op_class::SimdSha1Hash2                 0      0.00%     74.07% # Class of executed instruction
system.cpu0.op_class::SimdSha256Hash                0      0.00%     74.07% # Class of executed instruction
system.cpu0.op_class::SimdSha256Hash2               0      0.00%     74.07% # Class of executed instruction
system.cpu0.op_class::SimdShaSigma2                 0      0.00%     74.07% # Class of executed instruction
system.cpu0.op_class::SimdShaSigma3                 0      0.00%     74.07% # Class of executed instruction
system.cpu0.op_class::SimdPredAlu                   0      0.00%     74.07% # Class of executed instruction
system.cpu0.op_class::MemRead                       5     18.52%     92.59% # Class of executed instruction
system.cpu0.op_class::MemWrite                      0      0.00%     92.59% # Class of executed instruction
system.cpu0.op_class::FloatMemRead                  2      7.41%    100.00% # Class of executed instruction
system.cpu0.op_class::FloatMemWrite                 0      0.00%    100.00% # Class of executed instruction
system.cpu0.op_class::IprAccess                     0      0.00%    100.00% # Class of executed instruction
system.cpu0.op_class::InstPrefetch                  0      0.00%    100.00% # Class of executed instruction
system.cpu0.op_class::total                        27                       # Class of executed instruction
system.cpu0.workload.numSyscalls                    0                       # Number of system calls
system.cpu1.committedInsts                         19                       # Number of instructions committed
system.cpu1.committedOps                           20                       # Number of ops (including micro ops) committed
system.cpu1.idle_fraction                           0                       # Percentage of idle cycles
system.cpu1.l2bus.snoop_filter.hit_multi_requests            0                       # Number of requests hitting in the snoop filter with multiple (>1) holders of the requested data.
system.cpu1.l2bus.snoop_filter.hit_multi_snoops            0                       # Number of snoops hitting in the snoop filter with multiple (>1) holders of the requested data.
system.cpu1.l2bus.snoop_filter.hit_single_requests      2628628                       # Number of requests hitting in the snoop filter with a single holder of the requested data.
system.cpu1.l2bus.snoop_filter.hit_single_snoops          221                       # Number of snoops hitting in the snoop filter with a single holder of the requested data.
system.cpu1.l2bus.snoop_filter.tot_requests      5257822                       # Total number of requests made to the snoop filter.
system.cpu1.l2bus.snoop_filter.tot_snoops          221                       # Total number of snoops made to the snoop filter.
system.cpu1.mmucache.mmubus.snoop_filter.hit_multi_requests            0                       # Number of requests hitting in the snoop filter with multiple (>1) holders of the requested data.
system.cpu1.mmucache.mmubus.snoop_filter.hit_multi_snoops            0                       # Number of snoops hitting in the snoop filter with multiple (>1) holders of the requested data.
system.cpu1.mmucache.mmubus.snoop_filter.hit_single_requests            0                       # Number of requests hitting in the snoop filter with a single holder of the requested data.
system.cpu1.mmucache.mmubus.snoop_filter.hit_single_snoops            0                       # Number of snoops hitting in the snoop filter with a single holder of the requested data.
system.cpu1.mmucache.mmubus.snoop_filter.tot_requests            0                       # Total number of requests made to the snoop filter.
system.cpu1.mmucache.mmubus.snoop_filter.tot_snoops            0                       # Total number of snoops made to the snoop filter.
system.cpu1.not_idle_fraction                       1                       # Percentage of non-idle cycles
system.cpu1.numCycles                              30                       # number of cpu cycles simulated
system.cpu1.numWorkItemsCompleted                   0                       # number of work items this cpu completed
system.cpu1.numWorkItemsStarted                     0                       # number of work items this cpu started
system.cpu1.num_busy_cycles                        30                       # Number of busy cycles
system.cpu1.num_conditional_control_insts            0                       # number of instructions that are conditional controls
system.cpu1.num_fp_alu_accesses                    20                       # Number of float alu accesses
system.cpu1.num_fp_insts                           20                       # number of float instructions
system.cpu1.num_fp_register_reads                  36                       # number of times the floating registers were read
system.cpu1.num_fp_register_writes                 19                       # number of times the floating registers were written
system.cpu1.num_func_calls                          0                       # number of times a function call or return occured
system.cpu1.num_idle_cycles                         0                       # Number of idle cycles
system.cpu1.num_int_alu_accesses                    8                       # Number of integer alu accesses
system.cpu1.num_int_insts                           8                       # number of integer instructions
system.cpu1.num_int_register_reads                 24                       # number of times the integer registers were read
system.cpu1.num_int_register_writes                 0                       # number of times the integer registers were written
system.cpu1.num_load_insts                          7                       # Number of load instructions
system.cpu1.num_mem_refs                            8                       # number of memory refs
system.cpu1.num_store_insts                         1                       # Number of store instructions
system.cpu1.num_vec_alu_accesses                    0                       # Number of vector alu accesses
system.cpu1.num_vec_insts                           0                       # number of vector instructions
system.cpu1.num_vec_register_reads                  0                       # number of times the vector registers were read
system.cpu1.num_vec_register_writes                 0                       # number of times the vector registers were written
system.cpu1.op_class::No_OpClass                    0      0.00%      0.00% # Class of executed instruction
system.cpu1.op_class::IntAlu                        1      5.00%      5.00% # Class of executed instruction
system.cpu1.op_class::IntMult                       0      0.00%      5.00% # Class of executed instruction
system.cpu1.op_class::IntDiv                        0      0.00%      5.00% # Class of executed instruction
system.cpu1.op_class::FloatAdd                      0      0.00%      5.00% # Class of executed instruction
system.cpu1.op_class::FloatCmp                      0      0.00%      5.00% # Class of executed instruction
system.cpu1.op_class::FloatCvt                      0      0.00%      5.00% # Class of executed instruction
system.cpu1.op_class::FloatMult                     0      0.00%      5.00% # Class of executed instruction
system.cpu1.op_class::FloatMultAcc                  0      0.00%      5.00% # Class of executed instruction
system.cpu1.op_class::FloatDiv                      0      0.00%      5.00% # Class of executed instruction
system.cpu1.op_class::FloatMisc                     0      0.00%      5.00% # Class of executed instruction
system.cpu1.op_class::FloatSqrt                     0      0.00%      5.00% # Class of executed instruction
system.cpu1.op_class::SimdAdd                       0      0.00%      5.00% # Class of executed instruction
system.cpu1.op_class::SimdAddAcc                    0      0.00%      5.00% # Class of executed instruction
system.cpu1.op_class::SimdAlu                       0      0.00%      5.00% # Class of executed instruction
system.cpu1.op_class::SimdCmp                       0      0.00%      5.00% # Class of executed instruction
system.cpu1.op_class::SimdCvt                       0      0.00%      5.00% # Class of executed instruction
system.cpu1.op_class::SimdMisc                      0      0.00%      5.00% # Class of executed instruction
system.cpu1.op_class::SimdMult                      0      0.00%      5.00% # Class of executed instruction
system.cpu1.op_class::SimdMultAcc                   0      0.00%      5.00% # Class of executed instruction
system.cpu1.op_class::SimdShift                     0      0.00%      5.00% # Class of executed instruction
system.cpu1.op_class::SimdShiftAcc                  0      0.00%      5.00% # Class of executed instruction
system.cpu1.op_class::SimdDiv                       0      0.00%      5.00% # Class of executed instruction
system.cpu1.op_class::SimdSqrt                      0      0.00%      5.00% # Class of executed instruction
system.cpu1.op_class::SimdFloatAdd                  5     25.00%     30.00% # Class of executed instruction
system.cpu1.op_class::SimdFloatAlu                  0      0.00%     30.00% # Class of executed instruction
system.cpu1.op_class::SimdFloatCmp                  0      0.00%     30.00% # Class of executed instruction
system.cpu1.op_class::SimdFloatCvt                  0      0.00%     30.00% # Class of executed instruction
system.cpu1.op_class::SimdFloatDiv                  0      0.00%     30.00% # Class of executed instruction
system.cpu1.op_class::SimdFloatMisc                 0      0.00%     30.00% # Class of executed instruction
system.cpu1.op_class::SimdFloatMult                 6     30.00%     60.00% # Class of executed instruction
system.cpu1.op_class::SimdFloatMultAcc              0      0.00%     60.00% # Class of executed instruction
system.cpu1.op_class::SimdFloatSqrt                 0      0.00%     60.00% # Class of executed instruction
system.cpu1.op_class::SimdReduceAdd                 0      0.00%     60.00% # Class of executed instruction
system.cpu1.op_class::SimdReduceAlu                 0      0.00%     60.00% # Class of executed instruction
system.cpu1.op_class::SimdReduceCmp                 0      0.00%     60.00% # Class of executed instruction
system.cpu1.op_class::SimdFloatReduceAdd            0      0.00%     60.00% # Class of executed instruction
system.cpu1.op_class::SimdFloatReduceCmp            0      0.00%     60.00% # Class of executed instruction
system.cpu1.op_class::SimdAes                       0      0.00%     60.00% # Class of executed instruction
system.cpu1.op_class::SimdAesMix                    0      0.00%     60.00% # Class of executed instruction
system.cpu1.op_class::SimdSha1Hash                  0      0.00%     60.00% # Class of executed instruction
system.cpu1.op_class::SimdSha1Hash2                 0      0.00%     60.00% # Class of executed instruction
system.cpu1.op_class::SimdSha256Hash                0      0.00%     60.00% # Class of executed instruction
system.cpu1.op_class::SimdSha256Hash2               0      0.00%     60.00% # Class of executed instruction
system.cpu1.op_class::SimdShaSigma2                 0      0.00%     60.00% # Class of executed instruction
system.cpu1.op_class::SimdShaSigma3                 0      0.00%     60.00% # Class of executed instruction
system.cpu1.op_class::SimdPredAlu                   0      0.00%     60.00% # Class of executed instruction
system.cpu1.op_class::MemRead                       0      0.00%     60.00% # Class of executed instruction
system.cpu1.op_class::MemWrite                      0      0.00%     60.00% # Class of executed instruction
system.cpu1.op_class::FloatMemRead                  7     35.00%     95.00% # Class of executed instruction
system.cpu1.op_class::FloatMemWrite                 1      5.00%    100.00% # Class of executed instruction
system.cpu1.op_class::IprAccess                     0      0.00%    100.00% # Class of executed instruction
system.cpu1.op_class::InstPrefetch                  0      0.00%    100.00% # Class of executed instruction
system.cpu1.op_class::total                        20                       # Class of executed instruction
system.cpu1.workload.numSyscalls                    0                       # Number of system calls
system.cpu2.committedInsts                         15                       # Number of instructions committed
system.cpu2.committedOps                           23                       # Number of ops (including micro ops) committed
system.cpu2.idle_fraction                           0                       # Percentage of idle cycles
system.cpu2.l2bus.snoop_filter.hit_multi_requests            3                       # Number of requests hitting in the snoop filter with multiple (>1) holders of the requested data.
system.cpu2.l2bus.snoop_filter.hit_multi_snoops            0                       # Number of snoops hitting in the snoop filter with multiple (>1) holders of the requested data.
system.cpu2.l2bus.snoop_filter.hit_single_requests      2529390                       # Number of requests hitting in the snoop filter with a single holder of the requested data.
system.cpu2.l2bus.snoop_filter.hit_single_snoops          215                       # Number of snoops hitting in the snoop filter with a single holder of the requested data.
system.cpu2.l2bus.snoop_filter.tot_requests      5059485                       # Total number of requests made to the snoop filter.
system.cpu2.l2bus.snoop_filter.tot_snoops          215                       # Total number of snoops made to the snoop filter.
system.cpu2.mmucache.mmubus.snoop_filter.hit_multi_requests            0                       # Number of requests hitting in the snoop filter with multiple (>1) holders of the requested data.
system.cpu2.mmucache.mmubus.snoop_filter.hit_multi_snoops            0                       # Number of snoops hitting in the snoop filter with multiple (>1) holders of the requested data.
system.cpu2.mmucache.mmubus.snoop_filter.hit_single_requests            0                       # Number of requests hitting in the snoop filter with a single holder of the requested data.
system.cpu2.mmucache.mmubus.snoop_filter.hit_single_snoops            0                       # Number of snoops hitting in the snoop filter with a single holder of the requested data.
system.cpu2.mmucache.mmubus.snoop_filter.tot_requests            0                       # Total number of requests made to the snoop filter.
system.cpu2.mmucache.mmubus.snoop_filter.tot_snoops            0                       # Total number of snoops made to the snoop filter.
system.cpu2.not_idle_fraction                       1                       # Percentage of non-idle cycles
system.cpu2.numCycles                              31                       # number of cpu cycles simulated
system.cpu2.numWorkItemsCompleted                   0                       # number of work items this cpu completed
system.cpu2.numWorkItemsStarted                     0                       # number of work items this cpu started
system.cpu2.num_busy_cycles                        31                       # Number of busy cycles
system.cpu2.num_cc_register_writes                  2                       # number of times the CC registers were written
system.cpu2.num_conditional_control_insts            0                       # number of instructions that are conditional controls
system.cpu2.num_fp_alu_accesses                    15                       # Number of float alu accesses
system.cpu2.num_fp_insts                           15                       # number of float instructions
system.cpu2.num_fp_register_reads                  33                       # number of times the floating registers were read
system.cpu2.num_fp_register_writes                 15                       # number of times the floating registers were written
system.cpu2.num_func_calls                          0                       # number of times a function call or return occured
system.cpu2.num_idle_cycles                         0                       # Number of idle cycles
system.cpu2.num_int_alu_accesses                   12                       # Number of integer alu accesses
system.cpu2.num_int_insts                          12                       # number of integer instructions
system.cpu2.num_int_register_reads                 21                       # number of times the integer registers were read
system.cpu2.num_int_register_writes                 8                       # number of times the integer registers were written
system.cpu2.num_load_insts                          3                       # Number of load instructions
system.cpu2.num_mem_refs                            3                       # number of memory refs
system.cpu2.num_store_insts                         0                       # Number of store instructions
system.cpu2.num_vec_alu_accesses                    0                       # Number of vector alu accesses
system.cpu2.num_vec_insts                           0                       # number of vector instructions
system.cpu2.num_vec_register_reads                  0                       # number of times the vector registers were read
system.cpu2.num_vec_register_writes                 0                       # number of times the vector registers were written
system.cpu2.op_class::No_OpClass                    0      0.00%      0.00% # Class of executed instruction
system.cpu2.op_class::IntAlu                        5     21.74%     21.74% # Class of executed instruction
system.cpu2.op_class::IntMult                       0      0.00%     21.74% # Class of executed instruction
system.cpu2.op_class::IntDiv                        0      0.00%     21.74% # Class of executed instruction
system.cpu2.op_class::FloatAdd                      0      0.00%     21.74% # Class of executed instruction
system.cpu2.op_class::FloatCmp                      0      0.00%     21.74% # Class of executed instruction
system.cpu2.op_class::FloatCvt                      0      0.00%     21.74% # Class of executed instruction
system.cpu2.op_class::FloatMult                     0      0.00%     21.74% # Class of executed instruction
system.cpu2.op_class::FloatMultAcc                  0      0.00%     21.74% # Class of executed instruction
system.cpu2.op_class::FloatDiv                      0      0.00%     21.74% # Class of executed instruction
system.cpu2.op_class::FloatMisc                     0      0.00%     21.74% # Class of executed instruction
system.cpu2.op_class::FloatSqrt                     0      0.00%     21.74% # Class of executed instruction
system.cpu2.op_class::SimdAdd                       0      0.00%     21.74% # Class of executed instruction
system.cpu2.op_class::SimdAddAcc                    0      0.00%     21.74% # Class of executed instruction
system.cpu2.op_class::SimdAlu                       0      0.00%     21.74% # Class of executed instruction
system.cpu2.op_class::SimdCmp                       0      0.00%     21.74% # Class of executed instruction
system.cpu2.op_class::SimdCvt                       0      0.00%     21.74% # Class of executed instruction
system.cpu2.op_class::SimdMisc                      4     17.39%     39.13% # Class of executed instruction
system.cpu2.op_class::SimdMult                      0      0.00%     39.13% # Class of executed instruction
system.cpu2.op_class::SimdMultAcc                   0      0.00%     39.13% # Class of executed instruction
system.cpu2.op_class::SimdShift                     0      0.00%     39.13% # Class of executed instruction
system.cpu2.op_class::SimdShiftAcc                  0      0.00%     39.13% # Class of executed instruction
system.cpu2.op_class::SimdDiv                       0      0.00%     39.13% # Class of executed instruction
system.cpu2.op_class::SimdSqrt                      0      0.00%     39.13% # Class of executed instruction
system.cpu2.op_class::SimdFloatAdd                  3     13.04%     52.17% # Class of executed instruction
system.cpu2.op_class::SimdFloatAlu                  0      0.00%     52.17% # Class of executed instruction
system.cpu2.op_class::SimdFloatCmp                  0      0.00%     52.17% # Class of executed instruction
system.cpu2.op_class::SimdFloatCvt                  4     17.39%     69.57% # Class of executed instruction
system.cpu2.op_class::SimdFloatDiv                  0      0.00%     69.57% # Class of executed instruction
system.cpu2.op_class::SimdFloatMisc                 0      0.00%     69.57% # Class of executed instruction
system.cpu2.op_class::SimdFloatMult                 4     17.39%     86.96% # Class of executed instruction
system.cpu2.op_class::SimdFloatMultAcc              0      0.00%     86.96% # Class of executed instruction
system.cpu2.op_class::SimdFloatSqrt                 0      0.00%     86.96% # Class of executed instruction
system.cpu2.op_class::SimdReduceAdd                 0      0.00%     86.96% # Class of executed instruction
system.cpu2.op_class::SimdReduceAlu                 0      0.00%     86.96% # Class of executed instruction
system.cpu2.op_class::SimdReduceCmp                 0      0.00%     86.96% # Class of executed instruction
system.cpu2.op_class::SimdFloatReduceAdd            0      0.00%     86.96% # Class of executed instruction
system.cpu2.op_class::SimdFloatReduceCmp            0      0.00%     86.96% # Class of executed instruction
system.cpu2.op_class::SimdAes                       0      0.00%     86.96% # Class of executed instruction
system.cpu2.op_class::SimdAesMix                    0      0.00%     86.96% # Class of executed instruction
system.cpu2.op_class::SimdSha1Hash                  0      0.00%     86.96% # Class of executed instruction
system.cpu2.op_class::SimdSha1Hash2                 0      0.00%     86.96% # Class of executed instruction
system.cpu2.op_class::SimdSha256Hash                0      0.00%     86.96% # Class of executed instruction
system.cpu2.op_class::SimdSha256Hash2               0      0.00%     86.96% # Class of executed instruction
system.cpu2.op_class::SimdShaSigma2                 0      0.00%     86.96% # Class of executed instruction
system.cpu2.op_class::SimdShaSigma3                 0      0.00%     86.96% # Class of executed instruction
system.cpu2.op_class::SimdPredAlu                   0      0.00%     86.96% # Class of executed instruction
system.cpu2.op_class::MemRead                       3     13.04%    100.00% # Class of executed instruction
system.cpu2.op_class::MemWrite                      0      0.00%    100.00% # Class of executed instruction
system.cpu2.op_class::FloatMemRead                  0      0.00%    100.00% # Class of executed instruction
system.cpu2.op_class::FloatMemWrite                 0      0.00%    100.00% # Class of executed instruction
system.cpu2.op_class::IprAccess                     0      0.00%    100.00% # Class of executed instruction
system.cpu2.op_class::InstPrefetch                  0      0.00%    100.00% # Class of executed instruction
system.cpu2.op_class::total                        23                       # Class of executed instruction
system.cpu2.workload.numSyscalls                    0                       # Number of system calls
system.cpu3.Branches                                1                       # Number of branches fetched
system.cpu3.committedInsts                         18                       # Number of instructions committed
system.cpu3.committedOps                           21                       # Number of ops (including micro ops) committed
system.cpu3.idle_fraction                           0                       # Percentage of idle cycles
system.cpu3.l2bus.snoop_filter.hit_multi_requests        10286                       # Number of requests hitting in the snoop filter with multiple (>1) holders of the requested data.
system.cpu3.l2bus.snoop_filter.hit_multi_snoops            0                       # Number of snoops hitting in the snoop filter with multiple (>1) holders of the requested data.
system.cpu3.l2bus.snoop_filter.hit_single_requests      1641311                       # Number of requests hitting in the snoop filter with a single holder of the requested data.
system.cpu3.l2bus.snoop_filter.hit_single_snoops            0                       # Number of snoops hitting in the snoop filter with a single holder of the requested data.
system.cpu3.l2bus.snoop_filter.tot_requests      3283569                       # Total number of requests made to the snoop filter.
system.cpu3.l2bus.snoop_filter.tot_snoops            0                       # Total number of snoops made to the snoop filter.
system.cpu3.mmucache.mmubus.snoop_filter.hit_multi_requests            0                       # Number of requests hitting in the snoop filter with multiple (>1) holders of the requested data.
system.cpu3.mmucache.mmubus.snoop_filter.hit_multi_snoops            0                       # Number of snoops hitting in the snoop filter with multiple (>1) holders of the requested data.
system.cpu3.mmucache.mmubus.snoop_filter.hit_single_requests            0                       # Number of requests hitting in the snoop filter with a single holder of the requested data.
system.cpu3.mmucache.mmubus.snoop_filter.hit_single_snoops            0                       # Number of snoops hitting in the snoop filter with a single holder of the requested data.
system.cpu3.mmucache.mmubus.snoop_filter.tot_requests            0                       # Total number of requests made to the snoop filter.
system.cpu3.mmucache.mmubus.snoop_filter.tot_snoops            0                       # Total number of snoops made to the snoop filter.
system.cpu3.not_idle_fraction                       1                       # Percentage of non-idle cycles
system.cpu3.numCycles                              30                       # number of cpu cycles simulated
system.cpu3.numWorkItemsCompleted                   0                       # number of work items this cpu completed
system.cpu3.numWorkItemsStarted                     0                       # number of work items this cpu started
system.cpu3.num_busy_cycles                        30                       # Number of busy cycles
system.cpu3.num_cc_register_reads                   7                       # number of times the CC registers were read
system.cpu3.num_cc_register_writes                  4                       # number of times the CC registers were written
system.cpu3.num_conditional_control_insts            1                       # number of instructions that are conditional controls
system.cpu3.num_fp_alu_accesses                    13                       # Number of float alu accesses
system.cpu3.num_fp_insts                           13                       # number of float instructions
system.cpu3.num_fp_register_reads                  17                       # number of times the floating registers were read
system.cpu3.num_fp_register_writes                 13                       # number of times the floating registers were written
system.cpu3.num_func_calls                          0                       # number of times a function call or return occured
system.cpu3.num_idle_cycles                         0                       # Number of idle cycles
system.cpu3.num_int_alu_accesses                   15                       # Number of integer alu accesses
system.cpu3.num_int_insts                          15                       # number of integer instructions
system.cpu3.num_int_register_reads                 37                       # number of times the integer registers were read
system.cpu3.num_int_register_writes                 6                       # number of times the integer registers were written
system.cpu3.num_load_insts                          8                       # Number of load instructions
system.cpu3.num_mem_refs                            9                       # number of memory refs
system.cpu3.num_store_insts                         1                       # Number of store instructions
system.cpu3.num_vec_alu_accesses                    0                       # Number of vector alu accesses
system.cpu3.num_vec_insts                           0                       # number of vector instructions
system.cpu3.num_vec_register_reads                  0                       # number of times the vector registers were read
system.cpu3.num_vec_register_writes                 0                       # number of times the vector registers were written
system.cpu3.op_class::No_OpClass                    0      0.00%      0.00% # Class of executed instruction
system.cpu3.op_class::IntAlu                        7     33.33%     33.33% # Class of executed instruction
system.cpu3.op_class::IntMult                       0      0.00%     33.33% # Class of executed instruction
system.cpu3.op_class::IntDiv                        0      0.00%     33.33% # Class of executed instruction
system.cpu3.op_class::FloatAdd                      0      0.00%     33.33% # Class of executed instruction
system.cpu3.op_class::FloatCmp                      0      0.00%     33.33% # Class of executed instruction
system.cpu3.op_class::FloatCvt                      0      0.00%     33.33% # Class of executed instruction
system.cpu3.op_class::FloatMult                     0      0.00%     33.33% # Class of executed instruction
system.cpu3.op_class::FloatMultAcc                  0      0.00%     33.33% # Class of executed instruction
system.cpu3.op_class::FloatDiv                      0      0.00%     33.33% # Class of executed instruction
system.cpu3.op_class::FloatMisc                     0      0.00%     33.33% # Class of executed instruction
system.cpu3.op_class::FloatSqrt                     0      0.00%     33.33% # Class of executed instruction
system.cpu3.op_class::SimdAdd                       0      0.00%     33.33% # Class of executed instruction
system.cpu3.op_class::SimdAddAcc                    0      0.00%     33.33% # Class of executed instruction
system.cpu3.op_class::SimdAlu                       0      0.00%     33.33% # Class of executed instruction
system.cpu3.op_class::SimdCmp                       0      0.00%     33.33% # Class of executed instruction
system.cpu3.op_class::SimdCvt                       0      0.00%     33.33% # Class of executed instruction
system.cpu3.op_class::SimdMisc                      0      0.00%     33.33% # Class of executed instruction
system.cpu3.op_class::SimdMult                      0      0.00%     33.33% # Class of executed instruction
system.cpu3.op_class::SimdMultAcc                   0      0.00%     33.33% # Class of executed instruction
system.cpu3.op_class::SimdShift                     0      0.00%     33.33% # Class of executed instruction
system.cpu3.op_class::SimdShiftAcc                  0      0.00%     33.33% # Class of executed instruction
system.cpu3.op_class::SimdDiv                       0      0.00%     33.33% # Class of executed instruction
system.cpu3.op_class::SimdSqrt                      0      0.00%     33.33% # Class of executed instruction
system.cpu3.op_class::SimdFloatAdd                  2      9.52%     42.86% # Class of executed instruction
system.cpu3.op_class::SimdFloatAlu                  0      0.00%     42.86% # Class of executed instruction
system.cpu3.op_class::SimdFloatCmp                  0      0.00%     42.86% # Class of executed instruction
system.cpu3.op_class::SimdFloatCvt                  0      0.00%     42.86% # Class of executed instruction
system.cpu3.op_class::SimdFloatDiv                  0      0.00%     42.86% # Class of executed instruction
system.cpu3.op_class::SimdFloatMisc                 0      0.00%     42.86% # Class of executed instruction
system.cpu3.op_class::SimdFloatMult                 3     14.29%     57.14% # Class of executed instruction
system.cpu3.op_class::SimdFloatMultAcc              0      0.00%     57.14% # Class of executed instruction
system.cpu3.op_class::SimdFloatSqrt                 0      0.00%     57.14% # Class of executed instruction
system.cpu3.op_class::SimdReduceAdd                 0      0.00%     57.14% # Class of executed instruction
system.cpu3.op_class::SimdReduceAlu                 0      0.00%     57.14% # Class of executed instruction
system.cpu3.op_class::SimdReduceCmp                 0      0.00%     57.14% # Class of executed instruction
system.cpu3.op_class::SimdFloatReduceAdd            0      0.00%     57.14% # Class of executed instruction
system.cpu3.op_class::SimdFloatReduceCmp            0      0.00%     57.14% # Class of executed instruction
system.cpu3.op_class::SimdAes                       0      0.00%     57.14% # Class of executed instruction
system.cpu3.op_class::SimdAesMix                    0      0.00%     57.14% # Class of executed instruction
system.cpu3.op_class::SimdSha1Hash                  0      0.00%     57.14% # Class of executed instruction
system.cpu3.op_class::SimdSha1Hash2                 0      0.00%     57.14% # Class of executed instruction
system.cpu3.op_class::SimdSha256Hash                0      0.00%     57.14% # Class of executed instruction
system.cpu3.op_class::SimdSha256Hash2               0      0.00%     57.14% # Class of executed instruction
system.cpu3.op_class::SimdShaSigma2                 0      0.00%     57.14% # Class of executed instruction
system.cpu3.op_class::SimdShaSigma3                 0      0.00%     57.14% # Class of executed instruction
system.cpu3.op_class::SimdPredAlu                   0      0.00%     57.14% # Class of executed instruction
system.cpu3.op_class::MemRead                       1      4.76%     61.90% # Class of executed instruction
system.cpu3.op_class::MemWrite                      1      4.76%     66.67% # Class of executed instruction
system.cpu3.op_class::FloatMemRead                  7     33.33%    100.00% # Class of executed instruction
system.cpu3.op_class::FloatMemWrite                 0      0.00%    100.00% # Class of executed instruction
system.cpu3.op_class::IprAccess                     0      0.00%    100.00% # Class of executed instruction
system.cpu3.op_class::InstPrefetch                  0      0.00%    100.00% # Class of executed instruction
system.cpu3.op_class::total                        21                       # Class of executed instruction
system.cpu3.workload.numSyscalls                    0                       # Number of system calls
system.l3bus.snoop_filter.hit_multi_requests            0                       # Number of requests hitting in the snoop filter with multiple (>1) holders of the requested data.
system.l3bus.snoop_filter.hit_multi_snoops            0                       # Number of snoops hitting in the snoop filter with multiple (>1) holders of the requested data.
system.l3bus.snoop_filter.hit_single_requests      1689673                       # Number of requests hitting in the snoop filter with a single holder of the requested data.
system.l3bus.snoop_filter.hit_single_snoops            0                       # Number of snoops hitting in the snoop filter with a single holder of the requested data.
system.l3bus.snoop_filter.tot_requests        3416256                       # Total number of requests made to the snoop filter.
system.l3bus.snoop_filter.tot_snoops                0                       # Total number of snoops made to the snoop filter.
system.membus.snoop_filter.hit_multi_requests            0                       # Number of requests hitting in the snoop filter with multiple (>1) holders of the requested data.
system.membus.snoop_filter.hit_multi_snoops            0                       # Number of snoops hitting in the snoop filter with multiple (>1) holders of the requested data.
system.membus.snoop_filter.hit_single_requests      1608533                       # Number of requests hitting in the snoop filter with a single holder of the requested data.
system.membus.snoop_filter.hit_single_snoops            0                       # Number of snoops hitting in the snoop filter with a single holder of the requested data.
system.membus.snoop_filter.tot_requests       3296720                       # Total number of requests made to the snoop filter.
system.membus.snoop_filter.tot_snoops               0                       # Total number of snoops made to the snoop filter.
system.switch_cpus0.cc_regfile_reads         95272211                       # number of cc regfile reads
system.switch_cpus0.cc_regfile_writes        66937563                       # number of cc regfile writes
system.switch_cpus0.committedInsts          223967673                       # Number of Instructions Simulated
system.switch_cpus0.committedOps            355246294                       # Number of Ops (including micro ops) Simulated
system.switch_cpus0.cpi                      0.422499                       # CPI: Cycles Per Instruction
system.switch_cpus0.cpi_total                0.422499                       # CPI: Total CPI of All Threads
system.switch_cpus0.fp_regfile_reads        263830320                       # number of floating regfile reads
system.switch_cpus0.fp_regfile_writes       144643473                       # number of floating regfile writes
system.switch_cpus0.idleCycles                  49504                       # Total number of cycles that the CPU has spent unscheduled due to idling
system.switch_cpus0.iew.branchMispredicts         5626                       # Number of branch mispredicts detected at execute
system.switch_cpus0.iew.exec_branches        22486503                       # Number of branches executed
system.switch_cpus0.iew.exec_nop                    0                       # number of nop insts executed
system.switch_cpus0.iew.exec_rate            3.755460                       # Inst execution rate
system.switch_cpus0.iew.exec_refs            99315705                       # number of memory reference insts executed
system.switch_cpus0.iew.exec_stores          24844319                       # Number of stores executed
system.switch_cpus0.iew.exec_swp                    0                       # number of swp insts executed
system.switch_cpus0.iew.iewBlockCycles       23571341                       # Number of cycles IEW is blocking
system.switch_cpus0.iew.iewDispLoadInsts     74486397                       # Number of dispatched load instructions
system.switch_cpus0.iew.iewDispNonSpecInsts            0                       # Number of dispatched non-speculative instructions
system.switch_cpus0.iew.iewDispSquashedInsts         2605                       # Number of squashed instructions skipped by dispatch
system.switch_cpus0.iew.iewDispStoreInsts     24852867                       # Number of dispatched store instructions
system.switch_cpus0.iew.iewDispatchedInsts    355441217                       # Number of instructions dispatched to IQ
system.switch_cpus0.iew.iewExecLoadInsts     74471386                       # Number of load instructions executed
system.switch_cpus0.iew.iewExecSquashedInsts        16112                       # Number of squashed instructions skipped in execute
system.switch_cpus0.iew.iewExecutedInsts    355364542                       # Number of executed instructions
system.switch_cpus0.iew.iewIQFullEvents         46495                       # Number of times the IQ has become full, causing a stall
system.switch_cpus0.iew.iewIdleCycles               0                       # Number of cycles IEW is idle
system.switch_cpus0.iew.iewLSQFullEvents       171970                       # Number of times the LSQ has become full, causing a stall
system.switch_cpus0.iew.iewSquashCycles          6676                       # Number of cycles IEW is squashing
system.switch_cpus0.iew.iewUnblockCycles       251612                       # Number of cycles IEW is unblocking
system.switch_cpus0.iew.memOrderViolationEvents         1795                       # Number of memory order violations
system.switch_cpus0.iew.predictedNotTakenIncorrect         2555                       # Number of branches that were predicted not taken incorrectly
system.switch_cpus0.iew.predictedTakenIncorrect         3071                       # Number of branches that were predicted taken incorrectly
system.switch_cpus0.iew.wb_consumers        471649024                       # num instructions consuming a value
system.switch_cpus0.iew.wb_count            355354675                       # cumulative count of insts written-back
system.switch_cpus0.iew.wb_fanout            0.585805                       # average fanout of values written-back
system.switch_cpus0.iew.wb_producers        276294434                       # num instructions producing a value
system.switch_cpus0.iew.wb_rate              3.755356                       # insts written-back per cycle
system.switch_cpus0.iew.wb_sent             355358790                       # cumulative count of insts sent to commit
system.switch_cpus0.int_regfile_reads       369217841                       # number of integer regfile reads
system.switch_cpus0.int_regfile_writes      159845437                       # number of integer regfile writes
system.switch_cpus0.ipc                      2.366870                       # IPC: Instructions Per Cycle
system.switch_cpus0.ipc_total                2.366870                       # IPC: Total IPC of All Threads
system.switch_cpus0.iq.FU_type_0::No_OpClass         4101      0.00%      0.00% # Type of FU issued
system.switch_cpus0.iq.FU_type_0::IntAlu    173407971     48.79%     48.80% # Type of FU issued
system.switch_cpus0.iq.FU_type_0::IntMult       598349      0.17%     48.96% # Type of FU issued
system.switch_cpus0.iq.FU_type_0::IntDiv            0      0.00%     48.96% # Type of FU issued
system.switch_cpus0.iq.FU_type_0::FloatAdd      8863638      2.49%     51.46% # Type of FU issued
system.switch_cpus0.iq.FU_type_0::FloatCmp            0      0.00%     51.46% # Type of FU issued
system.switch_cpus0.iq.FU_type_0::FloatCvt            0      0.00%     51.46% # Type of FU issued
system.switch_cpus0.iq.FU_type_0::FloatMult            0      0.00%     51.46% # Type of FU issued
system.switch_cpus0.iq.FU_type_0::FloatMultAcc            0      0.00%     51.46% # Type of FU issued
system.switch_cpus0.iq.FU_type_0::FloatDiv            0      0.00%     51.46% # Type of FU issued
system.switch_cpus0.iq.FU_type_0::FloatMisc            0      0.00%     51.46% # Type of FU issued
system.switch_cpus0.iq.FU_type_0::FloatSqrt            0      0.00%     51.46% # Type of FU issued
system.switch_cpus0.iq.FU_type_0::SimdAdd            0      0.00%     51.46% # Type of FU issued
system.switch_cpus0.iq.FU_type_0::SimdAddAcc            0      0.00%     51.46% # Type of FU issued
system.switch_cpus0.iq.FU_type_0::SimdAlu      5910654      1.66%     53.12% # Type of FU issued
system.switch_cpus0.iq.FU_type_0::SimdCmp            0      0.00%     53.12% # Type of FU issued
system.switch_cpus0.iq.FU_type_0::SimdCvt            0      0.00%     53.12% # Type of FU issued
system.switch_cpus0.iq.FU_type_0::SimdMisc      4137387      1.16%     54.29% # Type of FU issued
system.switch_cpus0.iq.FU_type_0::SimdMult            0      0.00%     54.29% # Type of FU issued
system.switch_cpus0.iq.FU_type_0::SimdMultAcc            0      0.00%     54.29% # Type of FU issued
system.switch_cpus0.iq.FU_type_0::SimdShift            0      0.00%     54.29% # Type of FU issued
system.switch_cpus0.iq.FU_type_0::SimdShiftAcc            0      0.00%     54.29% # Type of FU issued
system.switch_cpus0.iq.FU_type_0::SimdDiv            0      0.00%     54.29% # Type of FU issued
system.switch_cpus0.iq.FU_type_0::SimdSqrt            0      0.00%     54.29% # Type of FU issued
system.switch_cpus0.iq.FU_type_0::SimdFloatAdd     24787937      6.98%     61.26% # Type of FU issued
system.switch_cpus0.iq.FU_type_0::SimdFloatAlu            0      0.00%     61.26% # Type of FU issued
system.switch_cpus0.iq.FU_type_0::SimdFloatCmp            0      0.00%     61.26% # Type of FU issued
system.switch_cpus0.iq.FU_type_0::SimdFloatCvt      4133908      1.16%     62.42% # Type of FU issued
system.switch_cpus0.iq.FU_type_0::SimdFloatDiv      2950672      0.83%     63.25% # Type of FU issued
system.switch_cpus0.iq.FU_type_0::SimdFloatMisc            0      0.00%     63.25% # Type of FU issued
system.switch_cpus0.iq.FU_type_0::SimdFloatMult     30083985      8.47%     71.72% # Type of FU issued
system.switch_cpus0.iq.FU_type_0::SimdFloatMultAcc            0      0.00%     71.72% # Type of FU issued
system.switch_cpus0.iq.FU_type_0::SimdFloatSqrt      1178524      0.33%     72.05% # Type of FU issued
system.switch_cpus0.iq.FU_type_0::SimdReduceAdd            0      0.00%     72.05% # Type of FU issued
system.switch_cpus0.iq.FU_type_0::SimdReduceAlu            0      0.00%     72.05% # Type of FU issued
system.switch_cpus0.iq.FU_type_0::SimdReduceCmp            0      0.00%     72.05% # Type of FU issued
system.switch_cpus0.iq.FU_type_0::SimdFloatReduceAdd            0      0.00%     72.05% # Type of FU issued
system.switch_cpus0.iq.FU_type_0::SimdFloatReduceCmp            0      0.00%     72.05% # Type of FU issued
system.switch_cpus0.iq.FU_type_0::SimdAes            0      0.00%     72.05% # Type of FU issued
system.switch_cpus0.iq.FU_type_0::SimdAesMix            0      0.00%     72.05% # Type of FU issued
system.switch_cpus0.iq.FU_type_0::SimdSha1Hash            0      0.00%     72.05% # Type of FU issued
system.switch_cpus0.iq.FU_type_0::SimdSha1Hash2            0      0.00%     72.05% # Type of FU issued
system.switch_cpus0.iq.FU_type_0::SimdSha256Hash            0      0.00%     72.05% # Type of FU issued
system.switch_cpus0.iq.FU_type_0::SimdSha256Hash2            0      0.00%     72.05% # Type of FU issued
system.switch_cpus0.iq.FU_type_0::SimdShaSigma2            0      0.00%     72.05% # Type of FU issued
system.switch_cpus0.iq.FU_type_0::SimdShaSigma3            0      0.00%     72.05% # Type of FU issued
system.switch_cpus0.iq.FU_type_0::SimdPredAlu            0      0.00%     72.05% # Type of FU issued
system.switch_cpus0.iq.FU_type_0::MemRead     28403569      7.99%     80.04% # Type of FU issued
system.switch_cpus0.iq.FU_type_0::MemWrite     10661064      3.00%     83.04% # Type of FU issued
system.switch_cpus0.iq.FU_type_0::FloatMemRead     46074743     12.96%     96.01% # Type of FU issued
system.switch_cpus0.iq.FU_type_0::FloatMemWrite     14184154      3.99%    100.00% # Type of FU issued
system.switch_cpus0.iq.FU_type_0::IprAccess            0      0.00%    100.00% # Type of FU issued
system.switch_cpus0.iq.FU_type_0::InstPrefetch            0      0.00%    100.00% # Type of FU issued
system.switch_cpus0.iq.FU_type_0::total     355380656                       # Type of FU issued
system.switch_cpus0.iq.fp_alu_accesses      169833440                       # Number of floating point alu accesses
system.switch_cpus0.iq.fp_inst_queue_reads    336937202                       # Number of floating instruction queue reads
system.switch_cpus0.iq.fp_inst_queue_wakeup_accesses    167093758                       # Number of floating instruction queue wakeup accesses
system.switch_cpus0.iq.fp_inst_queue_writes    167172616                       # Number of floating instruction queue writes
system.switch_cpus0.iq.fu_busy_cnt            5388301                       # FU busy when requested
system.switch_cpus0.iq.fu_busy_rate          0.015162                       # FU busy rate (busy events/executed inst)
system.switch_cpus0.iq.fu_full::No_OpClass            0      0.00%      0.00% # attempts to use FU when none available
system.switch_cpus0.iq.fu_full::IntAlu        1194224     22.16%     22.16% # attempts to use FU when none available
system.switch_cpus0.iq.fu_full::IntMult             0      0.00%     22.16% # attempts to use FU when none available
system.switch_cpus0.iq.fu_full::IntDiv              0      0.00%     22.16% # attempts to use FU when none available
system.switch_cpus0.iq.fu_full::FloatAdd            0      0.00%     22.16% # attempts to use FU when none available
system.switch_cpus0.iq.fu_full::FloatCmp            0      0.00%     22.16% # attempts to use FU when none available
system.switch_cpus0.iq.fu_full::FloatCvt            0      0.00%     22.16% # attempts to use FU when none available
system.switch_cpus0.iq.fu_full::FloatMult            0      0.00%     22.16% # attempts to use FU when none available
system.switch_cpus0.iq.fu_full::FloatMultAcc            0      0.00%     22.16% # attempts to use FU when none available
system.switch_cpus0.iq.fu_full::FloatDiv            0      0.00%     22.16% # attempts to use FU when none available
system.switch_cpus0.iq.fu_full::FloatMisc            0      0.00%     22.16% # attempts to use FU when none available
system.switch_cpus0.iq.fu_full::FloatSqrt            0      0.00%     22.16% # attempts to use FU when none available
system.switch_cpus0.iq.fu_full::SimdAdd             0      0.00%     22.16% # attempts to use FU when none available
system.switch_cpus0.iq.fu_full::SimdAddAcc            0      0.00%     22.16% # attempts to use FU when none available
system.switch_cpus0.iq.fu_full::SimdAlu         35076      0.65%     22.81% # attempts to use FU when none available
system.switch_cpus0.iq.fu_full::SimdCmp             0      0.00%     22.81% # attempts to use FU when none available
system.switch_cpus0.iq.fu_full::SimdCvt             0      0.00%     22.81% # attempts to use FU when none available
system.switch_cpus0.iq.fu_full::SimdMisc            4      0.00%     22.81% # attempts to use FU when none available
system.switch_cpus0.iq.fu_full::SimdMult            0      0.00%     22.81% # attempts to use FU when none available
system.switch_cpus0.iq.fu_full::SimdMultAcc            0      0.00%     22.81% # attempts to use FU when none available
system.switch_cpus0.iq.fu_full::SimdShift            0      0.00%     22.81% # attempts to use FU when none available
system.switch_cpus0.iq.fu_full::SimdShiftAcc            0      0.00%     22.81% # attempts to use FU when none available
system.switch_cpus0.iq.fu_full::SimdDiv             0      0.00%     22.81% # attempts to use FU when none available
system.switch_cpus0.iq.fu_full::SimdSqrt            0      0.00%     22.81% # attempts to use FU when none available
system.switch_cpus0.iq.fu_full::SimdFloatAdd        36592      0.68%     23.49% # attempts to use FU when none available
system.switch_cpus0.iq.fu_full::SimdFloatAlu            0      0.00%     23.49% # attempts to use FU when none available
system.switch_cpus0.iq.fu_full::SimdFloatCmp            0      0.00%     23.49% # attempts to use FU when none available
system.switch_cpus0.iq.fu_full::SimdFloatCvt            0      0.00%     23.49% # attempts to use FU when none available
system.switch_cpus0.iq.fu_full::SimdFloatDiv            0      0.00%     23.49% # attempts to use FU when none available
system.switch_cpus0.iq.fu_full::SimdFloatMisc            0      0.00%     23.49% # attempts to use FU when none available
system.switch_cpus0.iq.fu_full::SimdFloatMult       180026      3.34%     26.83% # attempts to use FU when none available
system.switch_cpus0.iq.fu_full::SimdFloatMultAcc            0      0.00%     26.83% # attempts to use FU when none available
system.switch_cpus0.iq.fu_full::SimdFloatSqrt            0      0.00%     26.83% # attempts to use FU when none available
system.switch_cpus0.iq.fu_full::SimdReduceAdd            0      0.00%     26.83% # attempts to use FU when none available
system.switch_cpus0.iq.fu_full::SimdReduceAlu            0      0.00%     26.83% # attempts to use FU when none available
system.switch_cpus0.iq.fu_full::SimdReduceCmp            0      0.00%     26.83% # attempts to use FU when none available
system.switch_cpus0.iq.fu_full::SimdFloatReduceAdd            0      0.00%     26.83% # attempts to use FU when none available
system.switch_cpus0.iq.fu_full::SimdFloatReduceCmp            0      0.00%     26.83% # attempts to use FU when none available
system.switch_cpus0.iq.fu_full::SimdAes             0      0.00%     26.83% # attempts to use FU when none available
system.switch_cpus0.iq.fu_full::SimdAesMix            0      0.00%     26.83% # attempts to use FU when none available
system.switch_cpus0.iq.fu_full::SimdSha1Hash            0      0.00%     26.83% # attempts to use FU when none available
system.switch_cpus0.iq.fu_full::SimdSha1Hash2            0      0.00%     26.83% # attempts to use FU when none available
system.switch_cpus0.iq.fu_full::SimdSha256Hash            0      0.00%     26.83% # attempts to use FU when none available
system.switch_cpus0.iq.fu_full::SimdSha256Hash2            0      0.00%     26.83% # attempts to use FU when none available
system.switch_cpus0.iq.fu_full::SimdShaSigma2            0      0.00%     26.83% # attempts to use FU when none available
system.switch_cpus0.iq.fu_full::SimdShaSigma3            0      0.00%     26.83% # attempts to use FU when none available
system.switch_cpus0.iq.fu_full::SimdPredAlu            0      0.00%     26.83% # attempts to use FU when none available
system.switch_cpus0.iq.fu_full::MemRead       1436725     26.66%     53.50% # attempts to use FU when none available
system.switch_cpus0.iq.fu_full::MemWrite        27502      0.51%     54.01% # attempts to use FU when none available
system.switch_cpus0.iq.fu_full::FloatMemRead      2477249     45.97%     99.98% # attempts to use FU when none available
system.switch_cpus0.iq.fu_full::FloatMemWrite          903      0.02%    100.00% # attempts to use FU when none available
system.switch_cpus0.iq.fu_full::IprAccess            0      0.00%    100.00% # attempts to use FU when none available
system.switch_cpus0.iq.fu_full::InstPrefetch            0      0.00%    100.00% # attempts to use FU when none available
system.switch_cpus0.iq.int_alu_accesses     190931416                       # Number of integer alu accesses
system.switch_cpus0.iq.int_inst_queue_reads    473790891                       # Number of integer instruction queue reads
system.switch_cpus0.iq.int_inst_queue_wakeup_accesses    188260917                       # Number of integer instruction queue wakeup accesses
system.switch_cpus0.iq.int_inst_queue_writes    188465173                       # Number of integer instruction queue writes
system.switch_cpus0.iq.iqInstsAdded         355441217                       # Number of instructions added to the IQ (excludes non-spec)
system.switch_cpus0.iq.iqInstsIssued        355380656                       # Number of instructions issued
system.switch_cpus0.iq.iqSquashedInstsExamined       194782                       # Number of squashed instructions iterated over during squash; mainly for profiling
system.switch_cpus0.iq.iqSquashedInstsIssued         1892                       # Number of squashed instructions issued
system.switch_cpus0.iq.iqSquashedOperandsExamined       250187                       # Number of squashed operands that are examined and possibly removed from graph
system.switch_cpus0.iq.issued_per_cycle::samples     94576590                       # Number of insts issued each cycle
system.switch_cpus0.iq.issued_per_cycle::mean     3.757596                       # Number of insts issued each cycle
system.switch_cpus0.iq.issued_per_cycle::stdev     2.980424                       # Number of insts issued each cycle
system.switch_cpus0.iq.issued_per_cycle::underflows            0      0.00%      0.00% # Number of insts issued each cycle
system.switch_cpus0.iq.issued_per_cycle::0     26908021     28.45%     28.45% # Number of insts issued each cycle
system.switch_cpus0.iq.issued_per_cycle::1      2948230      3.12%     31.57% # Number of insts issued each cycle
system.switch_cpus0.iq.issued_per_cycle::2      5985230      6.33%     37.90% # Number of insts issued each cycle
system.switch_cpus0.iq.issued_per_cycle::3      7353901      7.78%     45.67% # Number of insts issued each cycle
system.switch_cpus0.iq.issued_per_cycle::4      8487484      8.97%     54.65% # Number of insts issued each cycle
system.switch_cpus0.iq.issued_per_cycle::5     10539646     11.14%     65.79% # Number of insts issued each cycle
system.switch_cpus0.iq.issued_per_cycle::6      9337933      9.87%     75.66% # Number of insts issued each cycle
system.switch_cpus0.iq.issued_per_cycle::7      8404661      8.89%     84.55% # Number of insts issued each cycle
system.switch_cpus0.iq.issued_per_cycle::8     14611484     15.45%    100.00% # Number of insts issued each cycle
system.switch_cpus0.iq.issued_per_cycle::overflows            0      0.00%    100.00% # Number of insts issued each cycle
system.switch_cpus0.iq.issued_per_cycle::min_value            0                       # Number of insts issued each cycle
system.switch_cpus0.iq.issued_per_cycle::max_value            8                       # Number of insts issued each cycle
system.switch_cpus0.iq.issued_per_cycle::total     94576590                       # Number of insts issued each cycle
system.switch_cpus0.iq.rate                  3.755631                       # Inst issue rate
system.switch_cpus0.iq.vec_alu_accesses             0                       # Number of vector alu accesses
system.switch_cpus0.iq.vec_inst_queue_reads            0                       # Number of vector instruction queue reads
system.switch_cpus0.iq.vec_inst_queue_wakeup_accesses            0                       # Number of vector instruction queue wakeup accesses
system.switch_cpus0.iq.vec_inst_queue_writes            0                       # Number of vector instruction queue writes
system.switch_cpus0.memDep0.conflictingLoads      4148684                       # Number of conflicting loads.
system.switch_cpus0.memDep0.conflictingStores       851007                       # Number of conflicting stores.
system.switch_cpus0.memDep0.insertedLoads     74486397                       # Number of loads inserted to the mem dependence unit.
system.switch_cpus0.memDep0.insertedStores     24852867                       # Number of stores inserted to the mem dependence unit.
system.switch_cpus0.misc_regfile_reads      159658391                       # number of misc regfile reads
system.switch_cpus0.misc_regfile_writes             1                       # number of misc regfile writes
system.switch_cpus0.numCycles                94626094                       # number of cpu cycles simulated
system.switch_cpus0.numWorkItemsCompleted            0                       # number of work items this cpu completed
system.switch_cpus0.numWorkItemsStarted             0                       # number of work items this cpu started
system.switch_cpus0.timesIdled                    124                       # Number of times that the entire CPU went into an idle state and unscheduled itself
system.switch_cpus1.cc_regfile_reads          2672244                       # number of cc regfile reads
system.switch_cpus1.cc_regfile_writes         1264341                       # number of cc regfile writes
system.switch_cpus1.committedInsts           74371731                       # Number of Instructions Simulated
system.switch_cpus1.committedOps             81760345                       # Number of Ops (including micro ops) Simulated
system.switch_cpus1.cpi                      1.272340                       # CPI: Cycles Per Instruction
system.switch_cpus1.cpi_total                1.272340                       # CPI: Total CPI of All Threads
system.switch_cpus1.fp_regfile_reads        136611864                       # number of floating regfile reads
system.switch_cpus1.fp_regfile_writes        61635516                       # number of floating regfile writes
system.switch_cpus1.idleCycles                   8658                       # Total number of cycles that the CPU has spent unscheduled due to idling
system.switch_cpus1.iew.branchMispredicts         1611                       # Number of branch mispredicts detected at execute
system.switch_cpus1.iew.exec_branches          471749                       # Number of branches executed
system.switch_cpus1.iew.exec_nop                    0                       # number of nop insts executed
system.switch_cpus1.iew.exec_rate            1.011279                       # Inst execution rate
system.switch_cpus1.iew.exec_refs            46012138                       # number of memory reference insts executed
system.switch_cpus1.iew.exec_stores           9148748                       # Number of stores executed
system.switch_cpus1.iew.exec_swp                    0                       # number of swp insts executed
system.switch_cpus1.iew.iewBlockCycles       15399454                       # Number of cycles IEW is blocking
system.switch_cpus1.iew.iewDispLoadInsts     22981982                       # Number of dispatched load instructions
system.switch_cpus1.iew.iewDispNonSpecInsts            0                       # Number of dispatched non-speculative instructions
system.switch_cpus1.iew.iewDispSquashedInsts           47                       # Number of squashed instructions skipped by dispatch
system.switch_cpus1.iew.iewDispStoreInsts      9160488                       # Number of dispatched store instructions
system.switch_cpus1.iew.iewDispatchedInsts     81830377                       # Number of instructions dispatched to IQ
system.switch_cpus1.iew.iewExecLoadInsts     36863390                       # Number of load instructions executed
system.switch_cpus1.iew.iewExecSquashedInsts         1621                       # Number of squashed instructions skipped in execute
system.switch_cpus1.iew.iewExecutedInsts     95693424                       # Number of executed instructions
system.switch_cpus1.iew.iewIQFullEvents        114593                       # Number of times the IQ has become full, causing a stall
system.switch_cpus1.iew.iewIdleCycles               0                       # Number of cycles IEW is idle
system.switch_cpus1.iew.iewLSQFullEvents     11544509                       # Number of times the LSQ has become full, causing a stall
system.switch_cpus1.iew.iewSquashCycles          1891                       # Number of cycles IEW is squashing
system.switch_cpus1.iew.iewUnblockCycles     11693105                       # Number of cycles IEW is unblocking
system.switch_cpus1.iew.memOrderViolationEvents          599                       # Number of memory order violations
system.switch_cpus1.iew.predictedNotTakenIncorrect         1595                       # Number of branches that were predicted not taken incorrectly
system.switch_cpus1.iew.predictedTakenIncorrect           16                       # Number of branches that were predicted taken incorrectly
system.switch_cpus1.iew.wb_consumers        112208808                       # num instructions consuming a value
system.switch_cpus1.iew.wb_count             81793744                       # cumulative count of insts written-back
system.switch_cpus1.iew.wb_fanout            0.536534                       # average fanout of values written-back
system.switch_cpus1.iew.wb_producers         60203858                       # num instructions producing a value
system.switch_cpus1.iew.wb_rate              0.864389                       # insts written-back per cycle
system.switch_cpus1.iew.wb_sent              81794621                       # cumulative count of insts sent to commit
system.switch_cpus1.int_regfile_reads       102466546                       # number of integer regfile reads
system.switch_cpus1.int_regfile_writes       10538702                       # number of integer regfile writes
system.switch_cpus1.ipc                      0.785954                       # IPC: Instructions Per Cycle
system.switch_cpus1.ipc_total                0.785954                       # IPC: Total IPC of All Threads
system.switch_cpus1.iq.FU_type_0::No_OpClass            0      0.00%      0.00% # Type of FU issued
system.switch_cpus1.iq.FU_type_0::IntAlu     11886181     12.42%     12.42% # Type of FU issued
system.switch_cpus1.iq.FU_type_0::IntMult            0      0.00%     12.42% # Type of FU issued
system.switch_cpus1.iq.FU_type_0::IntDiv            0      0.00%     12.42% # Type of FU issued
system.switch_cpus1.iq.FU_type_0::FloatAdd            0      0.00%     12.42% # Type of FU issued
system.switch_cpus1.iq.FU_type_0::FloatCmp            0      0.00%     12.42% # Type of FU issued
system.switch_cpus1.iq.FU_type_0::FloatCvt            0      0.00%     12.42% # Type of FU issued
system.switch_cpus1.iq.FU_type_0::FloatMult            0      0.00%     12.42% # Type of FU issued
system.switch_cpus1.iq.FU_type_0::FloatMultAcc            0      0.00%     12.42% # Type of FU issued
system.switch_cpus1.iq.FU_type_0::FloatDiv            0      0.00%     12.42% # Type of FU issued
system.switch_cpus1.iq.FU_type_0::FloatMisc            0      0.00%     12.42% # Type of FU issued
system.switch_cpus1.iq.FU_type_0::FloatSqrt            0      0.00%     12.42% # Type of FU issued
system.switch_cpus1.iq.FU_type_0::SimdAdd            0      0.00%     12.42% # Type of FU issued
system.switch_cpus1.iq.FU_type_0::SimdAddAcc            0      0.00%     12.42% # Type of FU issued
system.switch_cpus1.iq.FU_type_0::SimdAlu           13      0.00%     12.42% # Type of FU issued
system.switch_cpus1.iq.FU_type_0::SimdCmp            0      0.00%     12.42% # Type of FU issued
system.switch_cpus1.iq.FU_type_0::SimdCvt            0      0.00%     12.42% # Type of FU issued
system.switch_cpus1.iq.FU_type_0::SimdMisc            0      0.00%     12.42% # Type of FU issued
system.switch_cpus1.iq.FU_type_0::SimdMult            0      0.00%     12.42% # Type of FU issued
system.switch_cpus1.iq.FU_type_0::SimdMultAcc            0      0.00%     12.42% # Type of FU issued
system.switch_cpus1.iq.FU_type_0::SimdShift            0      0.00%     12.42% # Type of FU issued
system.switch_cpus1.iq.FU_type_0::SimdShiftAcc            0      0.00%     12.42% # Type of FU issued
system.switch_cpus1.iq.FU_type_0::SimdDiv            0      0.00%     12.42% # Type of FU issued
system.switch_cpus1.iq.FU_type_0::SimdSqrt            0      0.00%     12.42% # Type of FU issued
system.switch_cpus1.iq.FU_type_0::SimdFloatAdd     23259385     24.31%     36.73% # Type of FU issued
system.switch_cpus1.iq.FU_type_0::SimdFloatAlu            0      0.00%     36.73% # Type of FU issued
system.switch_cpus1.iq.FU_type_0::SimdFloatCmp            0      0.00%     36.73% # Type of FU issued
system.switch_cpus1.iq.FU_type_0::SimdFloatCvt            0      0.00%     36.73% # Type of FU issued
system.switch_cpus1.iq.FU_type_0::SimdFloatDiv       459021      0.48%     37.21% # Type of FU issued
system.switch_cpus1.iq.FU_type_0::SimdFloatMisc            0      0.00%     37.21% # Type of FU issued
system.switch_cpus1.iq.FU_type_0::SimdFloatMult     14076726     14.71%     51.92% # Type of FU issued
system.switch_cpus1.iq.FU_type_0::SimdFloatMultAcc            0      0.00%     51.92% # Type of FU issued
system.switch_cpus1.iq.FU_type_0::SimdFloatSqrt            0      0.00%     51.92% # Type of FU issued
system.switch_cpus1.iq.FU_type_0::SimdReduceAdd            0      0.00%     51.92% # Type of FU issued
system.switch_cpus1.iq.FU_type_0::SimdReduceAlu            0      0.00%     51.92% # Type of FU issued
system.switch_cpus1.iq.FU_type_0::SimdReduceCmp            0      0.00%     51.92% # Type of FU issued
system.switch_cpus1.iq.FU_type_0::SimdFloatReduceAdd            0      0.00%     51.92% # Type of FU issued
system.switch_cpus1.iq.FU_type_0::SimdFloatReduceCmp            0      0.00%     51.92% # Type of FU issued
system.switch_cpus1.iq.FU_type_0::SimdAes            0      0.00%     51.92% # Type of FU issued
system.switch_cpus1.iq.FU_type_0::SimdAesMix            0      0.00%     51.92% # Type of FU issued
system.switch_cpus1.iq.FU_type_0::SimdSha1Hash            0      0.00%     51.92% # Type of FU issued
system.switch_cpus1.iq.FU_type_0::SimdSha1Hash2            0      0.00%     51.92% # Type of FU issued
system.switch_cpus1.iq.FU_type_0::SimdSha256Hash            0      0.00%     51.92% # Type of FU issued
system.switch_cpus1.iq.FU_type_0::SimdSha256Hash2            0      0.00%     51.92% # Type of FU issued
system.switch_cpus1.iq.FU_type_0::SimdShaSigma2            0      0.00%     51.92% # Type of FU issued
system.switch_cpus1.iq.FU_type_0::SimdShaSigma3            0      0.00%     51.92% # Type of FU issued
[...]
system.switch_cpus3.commit.numCommittedDist::stdev     3.283757                       # Number of insts commited each cycle
system.switch_cpus3.commit.numCommittedDist::underflows            0      0.00%      0.00% # Number of insts commited each cycle
system.switch_cpus3.commit.numCommittedDist::0     15259829     17.38%     17.38% # Number of insts commited each cycle
system.switch_cpus3.commit.numCommittedDist::1      6909096      7.87%     25.25% # Number of insts commited each cycle
system.switch_cpus3.commit.numCommittedDist::2      4826412      5.50%     30.75% # Number of insts commited each cycle
system.switch_cpus3.commit.numCommittedDist::3      9625559     10.96%     41.71% # Number of insts commited each cycle
system.switch_cpus3.commit.numCommittedDist::4      3057934      3.48%     45.19% # Number of insts commited each cycle
system.switch_cpus3.commit.numCommittedDist::5      2138961      2.44%     47.63% # Number of insts commited each cycle
system.switch_cpus3.commit.numCommittedDist::6      3246115      3.70%     51.32% # Number of insts commited each cycle
system.switch_cpus3.commit.numCommittedDist::7      3272466      3.73%     55.05% # Number of insts commited each cycle
system.switch_cpus3.commit.numCommittedDist::8     39467410     44.95%    100.00% # Number of insts commited each cycle
system.switch_cpus3.commit.numCommittedDist::overflows            0      0.00%    100.00% # Number of insts commited each cycle
system.switch_cpus3.commit.numCommittedDist::min_value            0                       # Number of insts commited each cycle
system.switch_cpus3.commit.numCommittedDist::max_value            8                       # Number of insts commited each cycle
system.switch_cpus3.commit.numCommittedDist::total     87803782                       # Number of insts commited each cycle
system.switch_cpus3.commit.instsCommitted    236684514                       # Number of instructions committed
system.switch_cpus3.commit.opsCommitted     426488370                       # Number of ops (including micro ops) committed
system.switch_cpus3.commit.memRefs          125124700                       # Number of memory references committed
system.switch_cpus3.commit.loads             86896627                       # Number of loads committed
system.switch_cpus3.commit.amos                     0                       # Number of atomic instructions committed
system.switch_cpus3.commit.membars                  0                       # Number of memory barriers committed
system.switch_cpus3.commit.branches          41912675                       # Number of branches committed
system.switch_cpus3.commit.vector                   0                       # Number of committed Vector instructions.
system.switch_cpus3.commit.floating          88778568                       # Number of committed floating point instructions.
system.switch_cpus3.commit.integer          374672134                       # Number of committed integer instructions.
system.switch_cpus3.commit.functionCalls      6566717                       # Number of function calls committed.
system.switch_cpus3.commit.committedInstType_0::No_OpClass      2284706      0.54%      0.54% # Class of committed instruction
system.switch_cpus3.commit.committedInstType_0::IntAlu    254352074     59.64%     60.17% # Class of committed instruction
system.switch_cpus3.commit.committedInstType_0::IntMult       893982      0.21%     60.38% # Class of committed instruction
system.switch_cpus3.commit.committedInstType_0::IntDiv            0      0.00%     60.38% # Class of committed instruction
system.switch_cpus3.commit.committedInstType_0::FloatAdd       967856      0.23%     60.61% # Class of committed instruction
system.switch_cpus3.commit.committedInstType_0::FloatCmp            0      0.00%     60.61% # Class of committed instruction
system.switch_cpus3.commit.committedInstType_0::FloatCvt            0      0.00%     60.61% # Class of committed instruction
system.switch_cpus3.commit.committedInstType_0::FloatMult            0      0.00%     60.61% # Class of committed instruction
system.switch_cpus3.commit.committedInstType_0::FloatMultAcc            0      0.00%     60.61% # Class of committed instruction
system.switch_cpus3.commit.committedInstType_0::FloatDiv            0      0.00%     60.61% # Class of committed instruction
system.switch_cpus3.commit.committedInstType_0::FloatMisc            0      0.00%     60.61% # Class of committed instruction
system.switch_cpus3.commit.committedInstType_0::FloatSqrt            0      0.00%     60.61% # Class of committed instruction
system.switch_cpus3.commit.committedInstType_0::SimdAdd            0      0.00%     60.61% # Class of committed instruction
system.switch_cpus3.commit.committedInstType_0::SimdAddAcc            0      0.00%     60.61% # Class of committed instruction
system.switch_cpus3.commit.committedInstType_0::SimdAlu      2783394      0.65%     61.26% # Class of committed instruction
system.switch_cpus3.commit.committedInstType_0::SimdCmp            0      0.00%     61.26% # Class of committed instruction
system.switch_cpus3.commit.committedInstType_0::SimdCvt            0      0.00%     61.26% # Class of committed instruction
system.switch_cpus3.commit.committedInstType_0::SimdMisc        76137      0.02%     61.28% # Class of committed instruction
system.switch_cpus3.commit.committedInstType_0::SimdMult            0      0.00%     61.28% # Class of committed instruction
system.switch_cpus3.commit.committedInstType_0::SimdMultAcc            0      0.00%     61.28% # Class of committed instruction
system.switch_cpus3.commit.committedInstType_0::SimdShift            0      0.00%     61.28% # Class of committed instruction
system.switch_cpus3.commit.committedInstType_0::SimdShiftAcc            0      0.00%     61.28% # Class of committed instruction
system.switch_cpus3.commit.committedInstType_0::SimdDiv            0      0.00%     61.28% # Class of committed instruction
system.switch_cpus3.commit.committedInstType_0::SimdSqrt            0      0.00%     61.28% # Class of committed instruction
system.switch_cpus3.commit.committedInstType_0::SimdFloatAdd     16269664      3.81%     65.10% # Class of committed instruction
system.switch_cpus3.commit.committedInstType_0::SimdFloatAlu            0      0.00%     65.10% # Class of committed instruction
system.switch_cpus3.commit.committedInstType_0::SimdFloatCmp        58401      0.01%     65.11% # Class of committed instruction
system.switch_cpus3.commit.committedInstType_0::SimdFloatCvt      7026313      1.65%     66.76% # Class of committed instruction
system.switch_cpus3.commit.committedInstType_0::SimdFloatDiv       563838      0.13%     66.89% # Class of committed instruction
system.switch_cpus3.commit.committedInstType_0::SimdFloatMisc            0      0.00%     66.89% # Class of committed instruction
system.switch_cpus3.commit.committedInstType_0::SimdFloatMult     16056726      3.76%     70.65% # Class of committed instruction
system.switch_cpus3.commit.committedInstType_0::SimdFloatMultAcc            0      0.00%     70.65% # Class of committed instruction
system.switch_cpus3.commit.committedInstType_0::SimdFloatSqrt        30579      0.01%     70.66% # Class of committed instruction
system.switch_cpus3.commit.committedInstType_0::SimdReduceAdd            0      0.00%     70.66% # Class of committed instruction
system.switch_cpus3.commit.committedInstType_0::SimdReduceAlu            0      0.00%     70.66% # Class of committed instruction
system.switch_cpus3.commit.committedInstType_0::SimdReduceCmp            0      0.00%     70.66% # Class of committed instruction
system.switch_cpus3.commit.committedInstType_0::SimdFloatReduceAdd            0      0.00%     70.66% # Class of committed instruction
system.switch_cpus3.commit.committedInstType_0::SimdFloatReduceCmp            0      0.00%     70.66% # Class of committed instruction
system.switch_cpus3.commit.committedInstType_0::SimdAes            0      0.00%     70.66% # Class of committed instruction
system.switch_cpus3.commit.committedInstType_0::SimdAesMix            0      0.00%     70.66% # Class of committed instruction
system.switch_cpus3.commit.committedInstType_0::SimdSha1Hash            0      0.00%     70.66% # Class of committed instruction
system.switch_cpus3.commit.committedInstType_0::SimdSha1Hash2            0      0.00%     70.66% # Class of committed instruction
system.switch_cpus3.commit.committedInstType_0::SimdSha256Hash            0      0.00%     70.66% # Class of committed instruction
system.switch_cpus3.commit.committedInstType_0::SimdSha256Hash2            0      0.00%     70.66% # Class of committed instruction
system.switch_cpus3.commit.committedInstType_0::SimdShaSigma2            0      0.00%     70.66% # Class of committed instruction
system.switch_cpus3.commit.committedInstType_0::SimdShaSigma3            0      0.00%     70.66% # Class of committed instruction
system.switch_cpus3.commit.committedInstType_0::SimdPredAlu            0      0.00%     70.66% # Class of committed instruction
system.switch_cpus3.commit.committedInstType_0::MemRead     53638989     12.58%     83.24% # Class of committed instruction
system.switch_cpus3.commit.committedInstType_0::MemWrite     32306466      7.57%     90.81% # Class of committed instruction
system.switch_cpus3.commit.committedInstType_0::FloatMemRead     33257638      7.80%     98.61% # Class of committed instruction
system.switch_cpus3.commit.committedInstType_0::FloatMemWrite      5921607      1.39%    100.00% # Class of committed instruction
system.switch_cpus3.commit.committedInstType_0::IprAccess            0      0.00%    100.00% # Class of committed instruction
system.switch_cpus3.commit.committedInstType_0::InstPrefetch            0      0.00%    100.00% # Class of committed instruction
system.switch_cpus3.commit.committedInstType_0::total    426488370                       # Class of committed instruction
system.switch_cpus3.commit.commitEligibleSamples     39467410                       # number cycles where commit BW limit reached
system.switch_cpus3.decode.idleCycles         5650220                       # Number of cycles decode is idle
system.switch_cpus3.decode.blockedCycles     14459898                       # Number of cycles decode is blocked
system.switch_cpus3.decode.runCycles         67692280                       # Number of cycles decode is running
system.switch_cpus3.decode.unblockCycles      5768329                       # Number of cycles decode is unblocking
system.switch_cpus3.decode.squashCycles        953646                       # Number of cycles decode is squashing
system.switch_cpus3.decode.branchResolved     20198551                       # Number of times decode resolved a  branch
system.switch_cpus3.decode.branchMispred        66733                       # Number of times decode detected a branch misprediction
system.switch_cpus3.decode.decodedInsts     494577929                       # Number of instructions handled by decode
system.switch_cpus3.decode.squashedInsts       402944                       # Number of squashed instructions handled by decode
system.switch_cpus3.dtb.rdAccesses           93356447                       # TLB accesses on read requests
system.switch_cpus3.dtb.wrAccesses           40358836                       # TLB accesses on write requests
system.switch_cpus3.dtb.rdMisses               616340                       # TLB misses on read requests
system.switch_cpus3.dtb.wrMisses               103083                       # TLB misses on write requests
system.switch_cpus3.dtb.walker.power_state.pwrStateResidencyTicks::UNDEFINED 13750563096576                       # Cumulative time (in ticks) in various power states
system.switch_cpus3.fetch.icacheStallCycles       944695                       # Number of cycles fetch is stalled on an Icache miss
system.switch_cpus3.fetch.insts             279806481                       # Number of instructions fetch has processed
system.switch_cpus3.fetch.branches           49823126                       # Number of branches that fetch encountered
system.switch_cpus3.fetch.predictedBranches     31208502                       # Number of branches that fetch has predicted taken
system.switch_cpus3.fetch.cycles             92559828                       # Number of cycles fetch has run and was not squashing or blocked
system.switch_cpus3.fetch.squashCycles        2039706                       # Number of cycles fetch has spent squashing
system.switch_cpus3.fetch.cacheLines         43111142                       # Number of cache lines fetched
system.switch_cpus3.fetch.icacheSquashes          307                       # Number of outstanding Icache misses that were squashed
system.switch_cpus3.fetch.nisnDist::samples     94524376                       # Number of instructions fetched each cycle (Total)
system.switch_cpus3.fetch.nisnDist::mean     5.358636                       # Number of instructions fetched each cycle (Total)
system.switch_cpus3.fetch.nisnDist::stdev     2.946869                       # Number of instructions fetched each cycle (Total)
system.switch_cpus3.fetch.nisnDist::underflows            0      0.00%      0.00% # Number of instructions fetched each cycle (Total)
system.switch_cpus3.fetch.nisnDist::0        11094826     11.74%     11.74% # Number of instructions fetched each cycle (Total)
system.switch_cpus3.fetch.nisnDist::1         3975962      4.21%     15.94% # Number of instructions fetched each cycle (Total)
system.switch_cpus3.fetch.nisnDist::2         6271756      6.64%     22.58% # Number of instructions fetched each cycle (Total)
system.switch_cpus3.fetch.nisnDist::3         4121452      4.36%     26.94% # Number of instructions fetched each cycle (Total)
system.switch_cpus3.fetch.nisnDist::4        11420461     12.08%     39.02% # Number of instructions fetched each cycle (Total)
system.switch_cpus3.fetch.nisnDist::5         3096011      3.28%     42.30% # Number of instructions fetched each cycle (Total)
system.switch_cpus3.fetch.nisnDist::6         8077007      8.54%     50.84% # Number of instructions fetched each cycle (Total)
system.switch_cpus3.fetch.nisnDist::7         3721236      3.94%     54.78% # Number of instructions fetched each cycle (Total)
system.switch_cpus3.fetch.nisnDist::8        42745665     45.22%    100.00% # Number of instructions fetched each cycle (Total)
system.switch_cpus3.fetch.nisnDist::overflows            0      0.00%    100.00% # Number of instructions fetched each cycle (Total)
system.switch_cpus3.fetch.nisnDist::min_value            0                       # Number of instructions fetched each cycle (Total)
system.switch_cpus3.fetch.nisnDist::max_value            8                       # Number of instructions fetched each cycle (Total)
system.switch_cpus3.fetch.nisnDist::total     94524376                       # Number of instructions fetched each cycle (Total)
system.switch_cpus3.fetch.branchRate         0.526526                       # Number of branch fetches per cycle
system.switch_cpus3.fetch.rate               2.956970                       # Number of inst fetches per cycle
system.switch_cpus3.itb.rdAccesses                  0                       # TLB accesses on read requests
system.switch_cpus3.itb.wrAccesses           43111142                       # TLB accesses on write requests
system.switch_cpus3.itb.rdMisses                    0                       # TLB misses on read requests
system.switch_cpus3.itb.wrMisses                   58                       # TLB misses on write requests
system.switch_cpus3.itb.walker.power_state.pwrStateResidencyTicks::UNDEFINED 13750563096576                       # Cumulative time (in ticks) in various power states
system.switch_cpus3.lsq0.forwLoads           17383266                       # Number of loads that had data forwarded from stores
system.switch_cpus3.lsq0.squashedLoads       10805501                       # Number of loads squashed
system.switch_cpus3.lsq0.ignoredResponses         5585                       # Number of memory responses ignored because the instruction is squashed
system.switch_cpus3.lsq0.memOrderViolation        16346                       # Number of memory ordering violations
system.switch_cpus3.lsq0.squashedStores       4674976                       # Number of stores squashed
system.switch_cpus3.lsq0.rescheduledLoads        57201                       # Number of loads that were rescheduled
system.switch_cpus3.lsq0.blockedByCache             0                       # Number of times an access to memory failed due to the cache being blocked
system.switch_cpus3.power_state.pwrStateResidencyTicks::OFF  31510500291                       # Cumulative time (in ticks) in various power states
system.switch_cpus3.rename.squashCycles        953646                       # Number of cycles rename is squashing
system.switch_cpus3.rename.idleCycles         8479450                       # Number of cycles rename is idle
system.switch_cpus3.rename.blockCycles        6281217                       # Number of cycles rename is blocking
system.switch_cpus3.rename.serializeStallCycles            0                       # count of cycles rename stalledfor serializing inst
system.switch_cpus3.rename.runCycles         70543992                       # Number of cycles rename is running
system.switch_cpus3.rename.unblockCycles      8266056                       # Number of cycles rename is unblocking
system.switch_cpus3.rename.renamedInsts     488500472                       # Number of instructions processed by rename
system.switch_cpus3.rename.ROBFullEvents        35376                       # Number of times rename has blocked due to ROB full
system.switch_cpus3.rename.IQFullEvents       2229500                       # Number of times rename has blocked due to IQ full
system.switch_cpus3.rename.LQFullEvents       1705839                       # Number of times rename has blocked due to LQ full
system.switch_cpus3.rename.SQFullEvents       2907072                       # Number of times rename has blocked due to SQ full
system.switch_cpus3.rename.renamedOperands    494289020                       # Number of destination operands rename has renamed
system.switch_cpus3.rename.lookups         1286831061                       # Number of register rename lookups that rename has made
system.switch_cpus3.rename.intLookups       683127062                       # Number of integer rename lookups
system.switch_cpus3.rename.fpLookups        149564490                       # Number of floating rename lookups
system.switch_cpus3.rename.committedMaps    430963532                       # Number of HB maps that are committed
system.switch_cpus3.rename.undoneMaps        63325375                       # Number of HB maps that are undone due to squashing
system.switch_cpus3.rename.serializing              0                       # count of serializing insts renamed
system.switch_cpus3.rename.tempSerializing            0                       # count of temporary serializing insts renamed
system.switch_cpus3.rename.skidInsts         21830539                       # count of insts added to the skid buffer
system.switch_cpus3.rob.reads               524909230                       # The number of ROB reads
system.switch_cpus3.rob.writes              959874743                       # The number of ROB writes
system.switch_cpus3.thread0.numInsts        236684514                       # Number of Instructions committed
system.switch_cpus3.thread0.numOps          426488370                       # Number of Ops committed
system.switch_cpus3.thread0.numMemRefs              0                       # Number of Memory References
system.voltage_domain.voltage                       1                       # Voltage in Volts

---------- End Simulation Statistics   ----------
