Command line:
./runscript_pride.sh lbm RFM5.BR1.4C 4 2017 --rh_defense --rh_mitigation=RFM --rh_rfm_per_trefi=5 --rh_rfm_blast_radius=1 --rh_rfm_maxacts_per_trefi=79
Global frequency set at 1000000000000 ticks per second
RFM details - rfm_act_threshold: 15, blast_radius: 1, delay_per_rfm: 175000 ps. sample_rate: 0.062500
RH Defense config: RFM, Bus Delay: 0, rfms_per_trefi: 5, rfm_act_threshold: 15, blast_radius: 1,rfm_delay_per_act: 45000 ps.
DRAM config: RowsPerBank: 65536, BanksPerRank: 32, RanksPerChannel: 1
warn: Sockets disabled, not accepting gdb connections
warn: CoherentXBar system.cpu0.mmucache.mmubus has no snooping ports attached!
warn: CoherentXBar system.cpu1.mmucache.mmubus has no snooping ports attached!
warn: CoherentXBar system.cpu2.mmucache.mmubus has no snooping ports attached!
warn: CoherentXBar system.cpu3.mmucache.mmubus has no snooping ports attached!
warn: Checkpoints for file descriptors currently do not work.
warn: Checkpoints for file descriptors currently do not work.
warn: Checkpoints for file descriptors currently do not work.
warn: Checkpoints for file descriptors currently do not work.
gem5 Simulator System.  http://gem5.org
gem5 is copyrighted software; use the --copyright option for details.

gem5 version 20.1.0.5
gem5 compiled Jul 12 2024 12:42:38
gem5 started Jul 31 2024 17:53:01
gem5 executing on a07dda8b130c, pid 241663
command line: /home/user/PrIDE/performance/gem5/build/X86/gem5.opt --outdir=/home/user/PrIDE/performance/gem5/stats/pride_multiprogram_16GBmem_250Mn.SPEC2017.C4/RFM5.BR1.4C/lbm /home/user/PrIDE/performance/gem5/configs/example/se_rq_spec_config_multicore.py --redirects /lib64=/home/utils/gcc-6.2.0/lib64 --benchmark=lbm --benchmark_stdout=/home/user/PrIDE/performance/gem5/stats/pride_multiprogram_16GBmem_250Mn.SPEC2017.C4/RFM5.BR1.4C/lbm/lbm.out --benchmark_stderr=/home/user/PrIDE/performance/gem5/stats/pride_multiprogram_16GBmem_250Mn.SPEC2017.C4/RFM5.BR1.4C/lbm/lbm.err --spec-version=2017 --rh_defense --rh_mitigation=RFM --rh_rfm_per_trefi=5 --rh_rfm_blast_radius=1 --rh_rfm_maxacts_per_trefi=79 --num-cpus=4 --mem-size=16GB --mem-type=DDR5_2400_32x4 --mem-ranks=1 --mem-channels=1 --checkpoint-dir=/home/user/PrIDE/performance/gem5/cpts-DDR5/multiprogram_16GBmem_25Bn.SPEC2017.C4/lbm-1-ref-x86 --checkpoint-restore=25000000000 --at-instruction --cpu-type DerivO3CPU --caches --l2cache --l1d_size=32kB --l1i_size=32kB --l2_size=256kB --l3_size=4MB --l1d_assoc=8 --l1i_assoc=8 --l2_assoc=16 --l3_assoc=16 --cpu-clock=3GHz --sys-clock=3GHz --maxinsts=250000000 --prog-interval=300Hz

info: Standard input is not a terminal, disabling listeners.
Benchmark- 0   lbm
Selected benchmark
--> lbm
CMD: ['/opt/spec2017/benchspec/CPU/519.lbm_r/run/run_base_refrate_gem5_se-m64.0000/lbm_r_base.gem5_se-m64', '3000', 'reference.dat', '0', '0', '/opt/spec2017/benchspec/CPU/519.lbm_r/run/run_base_refrate_gem5_se-m64.0000/100_100_130_ldc.of']
CWD: /opt/spec2017/benchspec/CPU/519.lbm_r/run/run_base_refrate_gem5_se-m64.0000/
Process stdout file: /home/user/PrIDE/performance/gem5/stats/pride_multiprogram_16GBmem_250Mn.SPEC2017.C4/RFM5.BR1.4C/lbm/lbm.out_0
Process stderr file: /home/user/PrIDE/performance/gem5/stats/pride_multiprogram_16GBmem_250Mn.SPEC2017.C4/RFM5.BR1.4C/lbm/lbm.err_0
Benchmark- 1   lbm
Selected benchmark
--> lbm
CMD: ['/opt/spec2017/benchspec/CPU/519.lbm_r/run/run_base_refrate_gem5_se-m64.0000/lbm_r_base.gem5_se-m64', '3000', 'reference.dat', '0', '0', '/opt/spec2017/benchspec/CPU/519.lbm_r/run/run_base_refrate_gem5_se-m64.0000/100_100_130_ldc.of']
CWD: /opt/spec2017/benchspec/CPU/519.lbm_r/run/run_base_refrate_gem5_se-m64.0000/
Process stdout file: /home/user/PrIDE/performance/gem5/stats/pride_multiprogram_16GBmem_250Mn.SPEC2017.C4/RFM5.BR1.4C/lbm/lbm.out_1
Process stderr file: /home/user/PrIDE/performance/gem5/stats/pride_multiprogram_16GBmem_250Mn.SPEC2017.C4/RFM5.BR1.4C/lbm/lbm.err_1
Benchmark- 2   lbm
Selected benchmark
--> lbm
CMD: ['/opt/spec2017/benchspec/CPU/519.lbm_r/run/run_base_refrate_gem5_se-m64.0000/lbm_r_base.gem5_se-m64', '3000', 'reference.dat', '0', '0', '/opt/spec2017/benchspec/CPU/519.lbm_r/run/run_base_refrate_gem5_se-m64.0000/100_100_130_ldc.of']
CWD: /opt/spec2017/benchspec/CPU/519.lbm_r/run/run_base_refrate_gem5_se-m64.0000/
Process stdout file: /home/user/PrIDE/performance/gem5/stats/pride_multiprogram_16GBmem_250Mn.SPEC2017.C4/RFM5.BR1.4C/lbm/lbm.out_2
Process stderr file: /home/user/PrIDE/performance/gem5/stats/pride_multiprogram_16GBmem_250Mn.SPEC2017.C4/RFM5.BR1.4C/lbm/lbm.err_2
Benchmark- 3   lbm
Selected benchmark
--> lbm
CMD: ['/opt/spec2017/benchspec/CPU/519.lbm_r/run/run_base_refrate_gem5_se-m64.0000/lbm_r_base.gem5_se-m64', '3000', 'reference.dat', '0', '0', '/opt/spec2017/benchspec/CPU/519.lbm_r/run/run_base_refrate_gem5_se-m64.0000/100_100_130_ldc.of']
CWD: /opt/spec2017/benchspec/CPU/519.lbm_r/run/run_base_refrate_gem5_se-m64.0000/
Process stdout file: /home/user/PrIDE/performance/gem5/stats/pride_multiprogram_16GBmem_250Mn.SPEC2017.C4/RFM5.BR1.4C/lbm/lbm.out_3
Process stderr file: /home/user/PrIDE/performance/gem5/stats/pride_multiprogram_16GBmem_250Mn.SPEC2017.C4/RFM5.BR1.4C/lbm/lbm.err_3
Workload-0: 
['/opt/spec2017/benchspec/CPU/519.lbm_r/run/run_base_refrate_gem5_se-m64.0000/lbm_r_base.gem5_se-m64', '3000', 'reference.dat', '0', '0', '/opt/spec2017/benchspec/CPU/519.lbm_r/run/run_base_refrate_gem5_se-m64.0000/100_100_130_ldc.of']
Workload-1: 
['/opt/spec2017/benchspec/CPU/519.lbm_r/run/run_base_refrate_gem5_se-m64.0000/lbm_r_base.gem5_se-m64', '3000', 'reference.dat', '0', '0', '/opt/spec2017/benchspec/CPU/519.lbm_r/run/run_base_refrate_gem5_se-m64.0000/100_100_130_ldc.of']
Workload-2: 
['/opt/spec2017/benchspec/CPU/519.lbm_r/run/run_base_refrate_gem5_se-m64.0000/lbm_r_base.gem5_se-m64', '3000', 'reference.dat', '0', '0', '/opt/spec2017/benchspec/CPU/519.lbm_r/run/run_base_refrate_gem5_se-m64.0000/100_100_130_ldc.of']
Workload-3: 
['/opt/spec2017/benchspec/CPU/519.lbm_r/run/run_base_refrate_gem5_se-m64.0000/lbm_r_base.gem5_se-m64', '3000', 'reference.dat', '0', '0', '/opt/spec2017/benchspec/CPU/519.lbm_r/run/run_base_refrate_gem5_se-m64.0000/100_100_130_ldc.of']
defense_enable:  True  detector:  MG  mitigation:  RFM  threshold:  800
mg_entries:  1700
rfm_maxacts_per_trefi:  79 rfm_per_trefi:  5 rfm_blast_radius:  1
Switch at curTick count:10000
warn: membus.master is deprecated. `master` is now called `mem_side_ports`
warn: No dot file generated. Please install pydot to generate the dot file and pdf.
info: Entering event queue @ 13719052595286.  Starting simulation...
warn: PowerState: Already in the requested power state, request ignored
Switched CPUS @ tick 13719052605286
switching cpus
**** REAL SIMULATION ****
info: Entering event queue @ 13719052605286.  Starting simulation...
13722385928619: Event_285: system.switch_cpus3 progress event, total committed:2848636, progress insts committed: 2848636, IPC: 0.284579
13722385928619: Event_284: system.switch_cpus2 progress event, total committed:2847380, progress insts committed: 2847380, IPC: 0.284453
13722385928619: Event_283: system.switch_cpus1 progress event, total committed:2831433, progress insts committed: 2831433, IPC: 00.28286
13722385928619: Event_282: system.switch_cpus0 progress event, total committed:2848154, progress insts committed: 2848154, IPC: 0.284531
13725719261952: Event_282: system.switch_cpus0 progress event, total committed:5378939, progress insts committed: 2530785, IPC: 0.252825
13725719261952: Event_283: system.switch_cpus1 progress event, total committed:5356758, progress insts committed: 2525325, IPC: 00.25228
13725719261952: Event_284: system.switch_cpus2 progress event, total committed:5374356, progress insts committed: 2526976, IPC: 0.252445
13725719261952: Event_285: system.switch_cpus3 progress event, total committed:5381030, progress insts committed: 2532394, IPC: 0.252986
13729052595285: Event_285: system.switch_cpus3 progress event, total committed:7719814, progress insts committed: 2338784, IPC: 0.233645
13729052595285: Event_284: system.switch_cpus2 progress event, total committed:7715612, progress insts committed: 2341256, IPC: 0.233891
13729052595285: Event_283: system.switch_cpus1 progress event, total committed:7681577, progress insts committed: 2324819, IPC: 0.232249
13729052595285: Event_282: system.switch_cpus0 progress event, total committed:7715612, progress insts committed: 2336673, IPC: 0.233434
13732385928618: Event_282: system.switch_cpus0 progress event, total committed:10163385, progress insts committed: 2447773, IPC: 0.244533
13732385928618: Event_283: system.switch_cpus1 progress event, total committed:10124304, progress insts committed: 2442727, IPC: 0.244028
13732385928618: Event_284: system.switch_cpus2 progress event, total committed:10163385, progress insts committed: 2447773, IPC: 0.244533
13732385928618: Event_285: system.switch_cpus3 progress event, total committed:10173273, progress insts committed: 2453459, IPC: 0.245101
13735719261951: Event_285: system.switch_cpus3 progress event, total committed:12450377, progress insts committed: 2277104, IPC: 0.227483
13735719261951: Event_284: system.switch_cpus2 progress event, total committed:12440266, progress insts committed: 2276881, IPC: 00.22746
13735719261951: Event_283: system.switch_cpus1 progress event, total committed:12408232, progress insts committed: 2283928, IPC: 0.228164
13735719261951: Event_282: system.switch_cpus0 progress event, total committed:12441343, progress insts committed: 2277958, IPC: 0.227568
13739052595284: Event_282: system.switch_cpus0 progress event, total committed:14849908, progress insts committed: 2408565, IPC: 0.240616
13739052595284: Event_283: system.switch_cpus1 progress event, total committed:14812267, progress insts committed: 2404035, IPC: 0.240163
13739052595284: Event_284: system.switch_cpus2 progress event, total committed:14848557, progress insts committed: 2408291, IPC: 0.240588
13739052595284: Event_285: system.switch_cpus3 progress event, total committed:14856824, progress insts committed: 2406447, IPC: 0.240404
13742385928617: Event_285: system.switch_cpus3 progress event, total committed:17143170, progress insts committed: 2286346, IPC: 0.228406
13742385928617: Event_284: system.switch_cpus2 progress event, total committed:17132350, progress insts committed: 2283793, IPC: 0.228151
13742385928617: Event_283: system.switch_cpus1 progress event, total committed:17087196, progress insts committed: 2274929, IPC: 0.227265
13742385928617: Event_282: system.switch_cpus0 progress event, total committed:17132860, progress insts committed: 2282952, IPC: 0.228067
13745719261950: Event_282: system.switch_cpus0 progress event, total committed:19639206, progress insts committed: 2506346, IPC: 0.250384
13745719261950: Event_283: system.switch_cpus1 progress event, total committed:19595728, progress insts committed: 2508532, IPC: 0.250602
13745719261950: Event_284: system.switch_cpus2 progress event, total committed:19633859, progress insts committed: 2501509, IPC: 0.249901
13745719261950: Event_285: system.switch_cpus3 progress event, total committed:19647978, progress insts committed: 2504808, IPC: 00.25023
13749052595283: Event_285: system.switch_cpus3 progress event, total committed:22110966, progress insts committed: 2462988, IPC: 0.246053
13749052595283: Event_284: system.switch_cpus2 progress event, total committed:22092288, progress insts committed: 2458429, IPC: 0.245597
13749052595283: Event_283: system.switch_cpus1 progress event, total committed:22058716, progress insts committed: 2462988, IPC: 0.246053
13749052595283: Event_282: system.switch_cpus0 progress event, total committed:22102664, progress insts committed: 2463458, IPC: 0.246099
13752385928616: Event_282: system.switch_cpus0 progress event, total committed:24331022, progress insts committed: 2228358, IPC: 0.222613
13752385928616: Event_283: system.switch_cpus1 progress event, total committed:24298166, progress insts committed: 2239450, IPC: 0.223721
13752385928616: Event_284: system.switch_cpus2 progress event, total committed:24323816, progress insts committed: 2231528, IPC: 00.22293
13752385928616: Event_285: system.switch_cpus3 progress event, total committed:24353608, progress insts committed: 2242642, IPC: 00.22404
13755719261949: Event_285: system.switch_cpus3 progress event, total committed:26731330, progress insts committed: 2377722, IPC: 0.237534
13755719261949: Event_284: system.switch_cpus2 progress event, total committed:26709404, progress insts committed: 2385588, IPC: 00.23832
13755719261949: Event_283: system.switch_cpus1 progress event, total committed:26675066, progress insts committed: 2376900, IPC: 0.237452
13755719261949: Event_282: system.switch_cpus0 progress event, total committed:26717626, progress insts committed: 2386604, IPC: 0.238422
13759052595282: Event_282: system.switch_cpus0 progress event, total committed:28953432, progress insts committed: 2235806, IPC: 0.223357
13759052595282: Event_283: system.switch_cpus1 progress event, total committed:28923775, progress insts committed: 2248709, IPC: 0.224646
13759052595282: Event_284: system.switch_cpus2 progress event, total committed:28948647, progress insts committed: 2239243, IPC: 000.2237
13759052595282: Event_285: system.switch_cpus3 progress event, total committed:28978490, progress insts committed: 2247160, IPC: 0.224491
13762385928615: Event_285: system.switch_cpus3 progress event, total committed:31371054, progress insts committed: 2392564, IPC: 0.239017
13762385928615: Event_284: system.switch_cpus2 progress event, total committed:31336716, progress insts committed: 2388069, IPC: 0.238568
13762385928615: Event_283: system.switch_cpus1 progress event, total committed:31315080, progress insts committed: 2391305, IPC: 0.238891
13762385928615: Event_282: system.switch_cpus0 progress event, total committed:31343107, progress insts committed: 2389675, IPC: 0.238729
13765719261948: Event_282: system.switch_cpus0 progress event, total committed:33572698, progress insts committed: 2229591, IPC: 0.222736
13765719261948: Event_283: system.switch_cpus1 progress event, total committed:33536205, progress insts committed: 2221125, IPC: 00.22189
13765719261948: Event_284: system.switch_cpus2 progress event, total committed:33563367, progress insts committed: 2226651, IPC: 0.222442
13765719261948: Event_285: system.switch_cpus3 progress event, total committed:33591432, progress insts committed: 2220378, IPC: 0.221816
13769052595281: Event_285: system.switch_cpus3 progress event, total committed:35950907, progress insts committed: 2359475, IPC: 0.235712
13769052595281: Event_284: system.switch_cpus2 progress event, total committed:35923416, progress insts committed: 2360049, IPC: 0.235769
13769052595281: Event_283: system.switch_cpus1 progress event, total committed:35894688, progress insts committed: 2358483, IPC: 0.235612
13769052595281: Event_282: system.switch_cpus0 progress event, total committed:35930577, progress insts committed: 2357879, IPC: 0.235552
13772385928614: Event_282: system.switch_cpus0 progress event, total committed:38202673, progress insts committed: 2272096, IPC: 0.226982
13772385928614: Event_283: system.switch_cpus1 progress event, total committed:38180215, progress insts committed: 2285527, IPC: 0.228324
13772385928614: Event_284: system.switch_cpus2 progress event, total committed:38197703, progress insts committed: 2274287, IPC: 0.227201
13772385928614: Event_285: system.switch_cpus3 progress event, total committed:38226900, progress insts committed: 2275993, IPC: 0.227372
13775719261947: Event_285: system.switch_cpus3 progress event, total committed:40653453, progress insts committed: 2426553, IPC: 0.242413
13775719261947: Event_284: system.switch_cpus2 progress event, total committed:40624790, progress insts committed: 2427087, IPC: 0.242466
13775719261947: Event_283: system.switch_cpus1 progress event, total committed:40606460, progress insts committed: 2426245, IPC: 0.242382
13775719261947: Event_282: system.switch_cpus0 progress event, total committed:40637316, progress insts committed: 2434643, IPC: 0.243221
13779052595280: Event_282: system.switch_cpus0 progress event, total committed:42902634, progress insts committed: 2265318, IPC: 0.226305
13779052595280: Event_283: system.switch_cpus1 progress event, total committed:42869930, progress insts committed: 2263470, IPC: 0.226121
13779052595280: Event_284: system.switch_cpus2 progress event, total committed:42893044, progress insts committed: 2268254, IPC: 0.226599
13779052595280: Event_285: system.switch_cpus3 progress event, total committed:42914795, progress insts committed: 2261342, IPC: 0.225908
13782385928613: Event_285: system.switch_cpus3 progress event, total committed:45344832, progress insts committed: 2430037, IPC: 0.242761
13782385928613: Event_284: system.switch_cpus2 progress event, total committed:45315118, progress insts committed: 2422074, IPC: 0.241965
13782385928613: Event_283: system.switch_cpus1 progress event, total committed:45301867, progress insts committed: 2431937, IPC: 0.242951
13782385928613: Event_282: system.switch_cpus0 progress event, total committed:45323757, progress insts committed: 2421123, IPC: 00.24187
13785719261946: Event_282: system.switch_cpus0 progress event, total committed:47741697, progress insts committed: 2417940, IPC: 0.241552
13785719261946: Event_283: system.switch_cpus1 progress event, total committed:47718208, progress insts committed: 2416341, IPC: 0.241392
13785719261946: Event_284: system.switch_cpus2 progress event, total committed:47729564, progress insts committed: 2414446, IPC: 0.241203
13785719261946: Event_285: system.switch_cpus3 progress event, total committed:47764292, progress insts committed: 2419460, IPC: 0.241704
13789052595279: Event_285: system.switch_cpus3 progress event, total committed:50040357, progress insts committed: 2276065, IPC: 0.227379
13789052595279: Event_284: system.switch_cpus2 progress event, total committed:50023506, progress insts committed: 2293942, IPC: 0.229165
13789052595279: Event_283: system.switch_cpus1 progress event, total committed:50005418, progress insts committed: 2287210, IPC: 0.228492
13789052595279: Event_282: system.switch_cpus0 progress event, total committed:50029155, progress insts committed: 2287458, IPC: 0.228517
13792385928612: Event_282: system.switch_cpus0 progress event, total committed:52462764, progress insts committed: 2433609, IPC: 0.243118
13792385928612: Event_283: system.switch_cpus1 progress event, total committed:52432634, progress insts committed: 2427216, IPC: 0.242479
13792385928612: Event_284: system.switch_cpus2 progress event, total committed:52451834, progress insts committed: 2428328, IPC: 00.24259
13792385928612: Event_285: system.switch_cpus3 progress event, total committed:52478969, progress insts committed: 2438612, IPC: 0.243617
13795719261945: Event_285: system.switch_cpus3 progress event, total committed:54794773, progress insts committed: 2315804, IPC: 0.231349
13795719261945: Event_284: system.switch_cpus2 progress event, total committed:54771036, progress insts committed: 2319202, IPC: 0.231688
13795719261945: Event_283: system.switch_cpus1 progress event, total committed:54750820, progress insts committed: 2318186, IPC: 0.231587
13795719261945: Event_282: system.switch_cpus0 progress event, total committed:54780612, progress insts committed: 2317848, IPC: 0.231553
13799052595278: Event_282: system.switch_cpus0 progress event, total committed:57243520, progress insts committed: 2462908, IPC: 0.246045
13799052595278: Event_283: system.switch_cpus1 progress event, total committed:57210294, progress insts committed: 2459474, IPC: 0.245701
13799052595278: Event_284: system.switch_cpus2 progress event, total committed:57234766, progress insts committed: 2463730, IPC: 0.246127
13799052595278: Event_285: system.switch_cpus3 progress event, total committed:57252681, progress insts committed: 2457908, IPC: 0.245545
13802385928611: Event_285: system.switch_cpus3 progress event, total committed:59562304, progress insts committed: 2309623, IPC: 0.230731
13802385928611: Event_284: system.switch_cpus2 progress event, total committed:59546472, progress insts committed: 2311706, IPC: 0.230939
13802385928611: Event_283: system.switch_cpus1 progress event, total committed:59523599, progress insts committed: 2313305, IPC: 0.231099
13802385928611: Event_282: system.switch_cpus0 progress event, total committed:59554991, progress insts committed: 2311471, IPC: 0.230916
13805719261944: Event_282: system.switch_cpus0 progress event, total committed:62016673, progress insts committed: 2461682, IPC: 0.245922
13805719261944: Event_283: system.switch_cpus1 progress event, total committed:61986552, progress insts committed: 2462953, IPC: 0.246049
13805719261944: Event_284: system.switch_cpus2 progress event, total committed:62011024, progress insts committed: 2464552, IPC: 0.246209
13805719261944: Event_285: system.switch_cpus3 progress event, total committed:62026566, progress insts committed: 2464262, IPC: 00.24618
13809052595277: Event_285: system.switch_cpus3 progress event, total committed:64294824, progress insts committed: 2268258, IPC: 0.226599
13809052595277: Event_284: system.switch_cpus2 progress event, total committed:64274816, progress insts committed: 2263792, IPC: 0.226153
13809052595277: Event_283: system.switch_cpus1 progress event, total committed:64255587, progress insts committed: 2269035, IPC: 0.226677
13809052595277: Event_282: system.switch_cpus0 progress event, total committed:64279396, progress insts committed: 2262723, IPC: 0.226046
13812385928610: Event_282: system.switch_cpus0 progress event, total committed:66713994, progress insts committed: 2434598, IPC: 0.243216
13812385928610: Event_283: system.switch_cpus1 progress event, total committed:66681300, progress insts committed: 2425713, IPC: 0.242329
13812385928610: Event_284: system.switch_cpus2 progress event, total committed:66702746, progress insts committed: 2427930, IPC: 00.24255
13812385928610: Event_285: system.switch_cpus3 progress event, total committed:66730301, progress insts committed: 2435477, IPC: 0.243304
13815719261943: Event_285: system.switch_cpus3 progress event, total committed:69004505, progress insts committed: 2274204, IPC: 0.227193
13815719261943: Event_284: system.switch_cpus2 progress event, total committed:68984670, progress insts committed: 2281924, IPC: 0.227964
13815719261943: Event_283: system.switch_cpus1 progress event, total committed:68965518, progress insts committed: 2284218, IPC: 0.228193
13815719261943: Event_282: system.switch_cpus0 progress event, total committed:68990104, progress insts committed: 2276110, IPC: 0.227383
13819052595276: Event_282: system.switch_cpus0 progress event, total committed:71403712, progress insts committed: 2413608, IPC: 0.241119
13819052595276: Event_283: system.switch_cpus1 progress event, total committed:71382850, progress insts committed: 2417332, IPC: 0.241491
13819052595276: Event_284: system.switch_cpus2 progress event, total committed:71392728, progress insts committed: 2408058, IPC: 0.240565
13819052595276: Event_285: system.switch_cpus3 progress event, total committed:71418318, progress insts committed: 2413813, IPC: 00.24114
13822385928609: Event_285: system.switch_cpus3 progress event, total committed:73716772, progress insts committed: 2298454, IPC: 0.229616
13822385928609: Event_284: system.switch_cpus2 progress event, total committed:73699436, progress insts committed: 2306708, IPC: 00.23044
13822385928609: Event_283: system.switch_cpus1 progress event, total committed:73678596, progress insts committed: 2295746, IPC: 0.229345
13822385928609: Event_282: system.switch_cpus0 progress event, total committed:73702616, progress insts committed: 2298904, IPC: 0.229661
13825719261942: Event_282: system.switch_cpus0 progress event, total committed:76158101, progress insts committed: 2455485, IPC: 0.245303
13825719261942: Event_283: system.switch_cpus1 progress event, total committed:76128252, progress insts committed: 2449656, IPC: 0.244721
13825719261942: Event_284: system.switch_cpus2 progress event, total committed:76148481, progress insts committed: 2449045, IPC: 00.24466
13825719261942: Event_285: system.switch_cpus3 progress event, total committed:76169330, progress insts committed: 2452558, IPC: 0.245011
13829052595275: Event_285: system.switch_cpus3 progress event, total committed:78614039, progress insts committed: 2444709, IPC: 0.244226
13829052595275: Event_284: system.switch_cpus2 progress event, total committed:78590345, progress insts committed: 2441864, IPC: 0.243942
13829052595275: Event_283: system.switch_cpus1 progress event, total committed:78568574, progress insts committed: 2440322, IPC: 0.243788
13829052595275: Event_282: system.switch_cpus0 progress event, total committed:78598366, progress insts committed: 2440265, IPC: 0.243782
13832385928608: Event_282: system.switch_cpus0 progress event, total committed:80913264, progress insts committed: 2314898, IPC: 0.231258
13832385928608: Event_283: system.switch_cpus1 progress event, total committed:80886954, progress insts committed: 2318380, IPC: 0.231606
13832385928608: Event_284: system.switch_cpus2 progress event, total committed:80904755, progress insts committed: 2314410, IPC: 00.23121
13832385928608: Event_285: system.switch_cpus3 progress event, total committed:80925028, progress insts committed: 2310989, IPC: 0.230868
13835719261941: Event_285: system.switch_cpus3 progress event, total committed:83426055, progress insts committed: 2501027, IPC: 0.249853
13835719261941: Event_284: system.switch_cpus2 progress event, total committed:83398387, progress insts committed: 2493632, IPC: 0.249114
13835719261941: Event_283: system.switch_cpus1 progress event, total committed:83380778, progress insts committed: 2493824, IPC: 0.249133
13835719261941: Event_282: system.switch_cpus0 progress event, total committed:83406566, progress insts committed: 2493302, IPC: 0.249081
13839052595274: Event_282: system.switch_cpus0 progress event, total committed:85691164, progress insts committed: 2284598, IPC: 0.228231
13839052595274: Event_283: system.switch_cpus1 progress event, total committed:85667710, progress insts committed: 2286932, IPC: 0.228465
13839052595274: Event_284: system.switch_cpus2 progress event, total committed:85687929, progress insts committed: 2289542, IPC: 0.228725
13839052595274: Event_285: system.switch_cpus3 progress event, total committed:85705064, progress insts committed: 2279009, IPC: 0.227673
13842385928607: Event_285: system.switch_cpus3 progress event, total committed:88146803, progress insts committed: 2441739, IPC: 00.24393
13842385928607: Event_284: system.switch_cpus2 progress event, total committed:88122686, progress insts committed: 2434757, IPC: 0.243232
13842385928607: Event_283: system.switch_cpus1 progress event, total committed:88105907, progress insts committed: 2438197, IPC: 0.243576
13842385928607: Event_282: system.switch_cpus0 progress event, total committed:88137050, progress insts committed: 2445886, IPC: 0.244344
13845719261940: Event_282: system.switch_cpus0 progress event, total committed:90404532, progress insts committed: 2267482, IPC: 0.226521
13845719261940: Event_283: system.switch_cpus1 progress event, total committed:90372128, progress insts committed: 2266221, IPC: 0.226395
13845719261940: Event_284: system.switch_cpus2 progress event, total committed:90386688, progress insts committed: 2264002, IPC: 0.226174
13845719261940: Event_285: system.switch_cpus3 progress event, total committed:90406731, progress insts committed: 2259928, IPC: 0.225767
13849052595273: Event_285: system.switch_cpus3 progress event, total committed:92816615, progress insts committed: 2409884, IPC: 0.240747
13849052595273: Event_284: system.switch_cpus2 progress event, total committed:92795508, progress insts committed: 2408820, IPC: 0.240641
13849052595273: Event_283: system.switch_cpus1 progress event, total committed:92781389, progress insts committed: 2409261, IPC: 0.240685
13849052595273: Event_282: system.switch_cpus0 progress event, total committed:92808468, progress insts committed: 2403936, IPC: 0.240153
13852385928606: Event_282: system.switch_cpus0 progress event, total committed:95045146, progress insts committed: 2236678, IPC: 0.223444
13852385928606: Event_283: system.switch_cpus1 progress event, total committed:95014364, progress insts committed: 2232975, IPC: 0.223074
13852385928606: Event_284: system.switch_cpus2 progress event, total committed:95025428, progress insts committed: 2229920, IPC: 0.222769
13852385928606: Event_285: system.switch_cpus3 progress event, total committed:95056850, progress insts committed: 2240235, IPC: 0.223799
13855719261939: Event_285: system.switch_cpus3 progress event, total committed:97449178, progress insts committed: 2392328, IPC: 0.238994
13855719261939: Event_284: system.switch_cpus2 progress event, total committed:97417984, progress insts committed: 2392556, IPC: 0.239016
13855719261939: Event_283: system.switch_cpus1 progress event, total committed:97412356, progress insts committed: 2397992, IPC: 0.239559
13855719261939: Event_282: system.switch_cpus0 progress event, total committed:97437474, progress insts committed: 2392328, IPC: 0.238994
13859052595272: Event_282: system.switch_cpus0 progress event, total committed:99691900, progress insts committed: 2254426, IPC: 0.225217
13859052595272: Event_283: system.switch_cpus1 progress event, total committed:99667027, progress insts committed: 2254671, IPC: 0.225242
13859052595272: Event_284: system.switch_cpus2 progress event, total committed:99677781, progress insts committed: 2259797, IPC: 0.225754
13859052595272: Event_285: system.switch_cpus3 progress event, total committed:99706536, progress insts committed: 2257358, IPC: 00.22551
13862385928605: Event_285: system.switch_cpus3 progress event, total committed:102131332, progress insts committed: 2424796, IPC: 0.242237
13862385928605: Event_284: system.switch_cpus2 progress event, total committed:102104444, progress insts committed: 2426663, IPC: 0.242424
13862385928605: Event_283: system.switch_cpus1 progress event, total committed:102082874, progress insts committed: 2415847, IPC: 0.241343
13862385928605: Event_282: system.switch_cpus0 progress event, total committed:102117212, progress insts committed: 2425312, IPC: 0.242289
13865719261938: Event_282: system.switch_cpus0 progress event, total committed:104391681, progress insts committed: 2274469, IPC: 0.227219
13865719261938: Event_283: system.switch_cpus1 progress event, total committed:104370042, progress insts committed: 2287168, IPC: 0.228488
13865719261938: Event_284: system.switch_cpus2 progress event, total committed:104389251, progress insts committed: 2284807, IPC: 0.228252
13865719261938: Event_285: system.switch_cpus3 progress event, total committed:104405757, progress insts committed: 2274425, IPC: 0.227215
13869052595271: Event_285: system.switch_cpus3 progress event, total committed:106845778, progress insts committed: 2440021, IPC: 0.243758
13869052595271: Event_284: system.switch_cpus2 progress event, total committed:106826324, progress insts committed: 2437073, IPC: 0.243464
13869052595271: Event_283: system.switch_cpus1 progress event, total committed:106809325, progress insts committed: 2439283, IPC: 0.243684
13869052595271: Event_282: system.switch_cpus0 progress event, total committed:106839334, progress insts committed: 2447653, IPC: 0.244521
13872385928604: Event_282: system.switch_cpus0 progress event, total committed:109287419, progress insts committed: 2448085, IPC: 0.244564
13872385928604: Event_283: system.switch_cpus1 progress event, total committed:109258908, progress insts committed: 2449583, IPC: 0.244713
13872385928604: Event_284: system.switch_cpus2 progress event, total committed:109275117, progress insts committed: 2448793, IPC: 0.244634
13872385928604: Event_285: system.switch_cpus3 progress event, total committed:109300886, progress insts committed: 2455108, IPC: 0.245265
13875719261937: Event_285: system.switch_cpus3 progress event, total committed:111611408, progress insts committed: 2310522, IPC: 0.230821
13875719261937: Event_284: system.switch_cpus2 progress event, total committed:111586115, progress insts committed: 2310998, IPC: 0.230869
13875719261937: Event_283: system.switch_cpus1 progress event, total committed:111573854, progress insts committed: 2314946, IPC: 0.231263
13875719261937: Event_282: system.switch_cpus0 progress event, total committed:111598036, progress insts committed: 2310617, IPC: 0.230831
13879052595270: Event_282: system.switch_cpus0 progress event, total committed:114076534, progress insts committed: 2478498, IPC: 0.247602
13879052595270: Event_283: system.switch_cpus1 progress event, total committed:114064675, progress insts committed: 2490821, IPC: 0.248833
13879052595270: Event_284: system.switch_cpus2 progress event, total committed:114067684, progress insts committed: 2481569, IPC: 0.247909
13879052595270: Event_285: system.switch_cpus3 progress event, total committed:114095723, progress insts committed: 2484315, IPC: 0.248183
13882385928603: Event_285: system.switch_cpus3 progress event, total committed:116429686, progress insts committed: 2333963, IPC: 0.233163
13882385928603: Event_284: system.switch_cpus2 progress event, total committed:116407150, progress insts committed: 2339466, IPC: 0.233713
13882385928603: Event_283: system.switch_cpus1 progress event, total committed:116389307, progress insts committed: 2324632, IPC: 0.232231
13882385928603: Event_282: system.switch_cpus0 progress event, total committed:116418574, progress insts committed: 2342040, IPC: 00.23397
13885719261936: Event_282: system.switch_cpus0 progress event, total committed:118897845, progress insts committed: 2479271, IPC: 0.247679
13885719261936: Event_283: system.switch_cpus1 progress event, total committed:118879392, progress insts committed: 2490085, IPC: 0.248759
13885719261936: Event_284: system.switch_cpus2 progress event, total committed:118886954, progress insts committed: 2479804, IPC: 0.247732
13885719261936: Event_285: system.switch_cpus3 progress event, total committed:118911139, progress insts committed: 2481453, IPC: 0.247897
13889052595269: Event_285: system.switch_cpus3 progress event, total committed:121257275, progress insts committed: 2346136, IPC: 0.234379
13889052595269: Event_284: system.switch_cpus2 progress event, total committed:121243883, progress insts committed: 2356929, IPC: 0.235457
13889052595269: Event_283: system.switch_cpus1 progress event, total committed:121230104, progress insts committed: 2350712, IPC: 0.234836
13889052595269: Event_282: system.switch_cpus0 progress event, total committed:121248614, progress insts committed: 2350769, IPC: 0.234842
13892385928602: Event_282: system.switch_cpus0 progress event, total committed:123737274, progress insts committed: 2488660, IPC: 0.248617
13892385928602: Event_283: system.switch_cpus1 progress event, total committed:123709323, progress insts committed: 2479219, IPC: 0.247674
13892385928602: Event_284: system.switch_cpus2 progress event, total committed:123725570, progress insts committed: 2481687, IPC: 0.247921
13892385928602: Event_285: system.switch_cpus3 progress event, total committed:123751348, progress insts committed: 2494073, IPC: 0.249158
13895719261935: Event_285: system.switch_cpus3 progress event, total committed:126055654, progress insts committed: 2304306, IPC: 000.2302
13895719261935: Event_284: system.switch_cpus2 progress event, total committed:126030118, progress insts committed: 2304548, IPC: 0.230224
13895719261935: Event_283: system.switch_cpus1 progress event, total committed:126014764, progress insts committed: 2305441, IPC: 0.230314
13895719261935: Event_282: system.switch_cpus0 progress event, total committed:126043127, progress insts committed: 2305853, IPC: 0.230355
13899052595268: Event_282: system.switch_cpus0 progress event, total committed:128498104, progress insts committed: 2454977, IPC: 0.245252
13899052595268: Event_283: system.switch_cpus1 progress event, total committed:128470503, progress insts committed: 2455739, IPC: 0.245328
13899052595268: Event_284: system.switch_cpus2 progress event, total committed:128486642, progress insts committed: 2456524, IPC: 0.245407
13899052595268: Event_285: system.switch_cpus3 progress event, total committed:128513804, progress insts committed: 2458150, IPC: 0.245569
13902385928601: Event_285: system.switch_cpus3 progress event, total committed:130822868, progress insts committed: 2309064, IPC: 0.230675
13902385928601: Event_284: system.switch_cpus2 progress event, total committed:130797864, progress insts committed: 2311222, IPC: 0.230891
13902385928601: Event_283: system.switch_cpus1 progress event, total committed:130780523, progress insts committed: 2310020, IPC: 0.230771
13902385928601: Event_282: system.switch_cpus0 progress event, total committed:130804248, progress insts committed: 2306144, IPC: 0.230384
13905719261934: Event_282: system.switch_cpus0 progress event, total committed:133288903, progress insts committed: 2484655, IPC: 0.248217
13905719261934: Event_283: system.switch_cpus1 progress event, total committed:133263190, progress insts committed: 2482667, IPC: 0.248018
13905719261934: Event_284: system.switch_cpus2 progress event, total committed:133286311, progress insts committed: 2488447, IPC: 0.248596
13905719261934: Event_285: system.switch_cpus3 progress event, total committed:133300327, progress insts committed: 2477459, IPC: 0.247498
13909052595267: Event_285: system.switch_cpus3 progress event, total committed:135610657, progress insts committed: 2310330, IPC: 0.230802
13909052595267: Event_284: system.switch_cpus2 progress event, total committed:135590614, progress insts committed: 2304303, IPC: 000.2302
13909052595267: Event_283: system.switch_cpus1 progress event, total committed:135569866, progress insts committed: 2306676, IPC: 0.230437
13909052595267: Event_282: system.switch_cpus0 progress event, total committed:135598916, progress insts committed: 2310013, IPC: 00.23077
13912385928600: Event_282: system.switch_cpus0 progress event, total committed:138032245, progress insts committed: 2433329, IPC: 00.24309
13912385928600: Event_283: system.switch_cpus1 progress event, total committed:138002818, progress insts committed: 2432952, IPC: 0.243052
13912385928600: Event_284: system.switch_cpus2 progress event, total committed:138019789, progress insts committed: 2429175, IPC: 0.242675
13912385928600: Event_285: system.switch_cpus3 progress event, total committed:138052216, progress insts committed: 2441559, IPC: 0.243912
13915719261933: Event_285: system.switch_cpus3 progress event, total committed:140320588, progress insts committed: 2268372, IPC: 00.22661
13915719261933: Event_284: system.switch_cpus2 progress event, total committed:140298130, progress insts committed: 2278341, IPC: 0.227606
13915719261933: Event_283: system.switch_cpus1 progress event, total committed:140275499, progress insts committed: 2272681, IPC: 0.227041
13915719261933: Event_282: system.switch_cpus0 progress event, total committed:140309834, progress insts committed: 2277589, IPC: 0.227531
13919052595266: Event_282: system.switch_cpus0 progress event, total committed:142719536, progress insts committed: 2409702, IPC: 0.240729
13919052595266: Event_283: system.switch_cpus1 progress event, total committed:142699502, progress insts committed: 2424003, IPC: 0.242158
13919052595266: Event_284: system.switch_cpus2 progress event, total committed:142716186, progress insts committed: 2418056, IPC: 0.241564
13919052595266: Event_285: system.switch_cpus3 progress event, total committed:142739516, progress insts committed: 2418928, IPC: 0.241651
13922385928599: Event_285: system.switch_cpus3 progress event, total committed:145171858, progress insts committed: 2432342, IPC: 0.242991
13922385928599: Event_284: system.switch_cpus2 progress event, total committed:145137941, progress insts committed: 2421755, IPC: 0.241933
13922385928599: Event_283: system.switch_cpus1 progress event, total committed:145120406, progress insts committed: 2420904, IPC: 0.241848
13922385928599: Event_282: system.switch_cpus0 progress event, total committed:145151190, progress insts committed: 2431654, IPC: 0.242922
13925719261932: Event_282: system.switch_cpus0 progress event, total committed:147409874, progress insts committed: 2258684, IPC: 0.225643
13925719261932: Event_283: system.switch_cpus1 progress event, total committed:147378484, progress insts committed: 2258078, IPC: 0.225582
13925719261932: Event_284: system.switch_cpus2 progress event, total committed:147398531, progress insts committed: 2260590, IPC: 0.225833
13925719261932: Event_285: system.switch_cpus3 progress event, total committed:147430086, progress insts committed: 2258228, IPC: 0.225597
13929052595265: Event_285: system.switch_cpus3 progress event, total committed:149872076, progress insts committed: 2441990, IPC: 0.243955
13929052595265: Event_284: system.switch_cpus2 progress event, total committed:149839073, progress insts committed: 2440542, IPC: 00.24381
13929052595265: Event_283: system.switch_cpus1 progress event, total committed:149828918, progress insts committed: 2450434, IPC: 0.244798
13929052595265: Event_282: system.switch_cpus0 progress event, total committed:149849468, progress insts committed: 2439594, IPC: 0.243715
13932385928598: Event_282: system.switch_cpus0 progress event, total committed:152134449, progress insts committed: 2284981, IPC: 00.22827
13932385928598: Event_283: system.switch_cpus1 progress event, total committed:152106273, progress insts committed: 2277355, IPC: 0.227508
13932385928598: Event_284: system.switch_cpus2 progress event, total committed:152124352, progress insts committed: 2285279, IPC: 0.228299
13932385928598: Event_285: system.switch_cpus3 progress event, total committed:152146281, progress insts committed: 2274205, IPC: 0.227193
13935719261931: Event_285: system.switch_cpus3 progress event, total committed:154591284, progress insts committed: 2445003, IPC: 0.244256
13935719261931: Event_284: system.switch_cpus2 progress event, total committed:154559899, progress insts committed: 2435547, IPC: 0.243311
13935719261931: Event_283: system.switch_cpus1 progress event, total committed:154547623, progress insts committed: 2441350, IPC: 0.243891
13935719261931: Event_282: system.switch_cpus0 progress event, total committed:154572125, progress insts committed: 2437676, IPC: 0.243524
13939052595264: Event_282: system.switch_cpus0 progress event, total committed:156852906, progress insts committed: 2280781, IPC: 00.22785
13939052595264: Event_283: system.switch_cpus1 progress event, total committed:156824955, progress insts committed: 2277332, IPC: 0.227505
13939052595264: Event_284: system.switch_cpus2 progress event, total committed:156841444, progress insts committed: 2281545, IPC: 0.227926
13939052595264: Event_285: system.switch_cpus3 progress event, total committed:156863373, progress insts committed: 2272089, IPC: 0.226982
13942385928597: Event_285: system.switch_cpus3 progress event, total committed:159298016, progress insts committed: 2434643, IPC: 0.243221
13942385928597: Event_284: system.switch_cpus2 progress event, total committed:159263436, progress insts committed: 2421992, IPC: 0.241957
13942385928597: Event_283: system.switch_cpus1 progress event, total committed:159258534, progress insts committed: 2433579, IPC: 0.243115
13942385928597: Event_282: system.switch_cpus0 progress event, total committed:159275385, progress insts committed: 2422479, IPC: 0.242006
13945719261930: Event_282: system.switch_cpus0 progress event, total committed:161550559, progress insts committed: 2275174, IPC: 00.22729
13945719261930: Event_283: system.switch_cpus1 progress event, total committed:161520205, progress insts committed: 2261671, IPC: 0.225941
13945719261930: Event_284: system.switch_cpus2 progress event, total committed:161530630, progress insts committed: 2267194, IPC: 0.226493
13945719261930: Event_285: system.switch_cpus3 progress event, total committed:161565247, progress insts committed: 2267231, IPC: 0.226496
13949052595263: Event_285: system.switch_cpus3 progress event, total committed:163976006, progress insts committed: 2410759, IPC: 0.240835
13949052595263: Event_284: system.switch_cpus2 progress event, total committed:163956658, progress insts committed: 2426028, IPC: 00.24236
13949052595263: Event_283: system.switch_cpus1 progress event, total committed:163942884, progress insts committed: 2422679, IPC: 0.242026
13949052595263: Event_282: system.switch_cpus0 progress event, total committed:163974275, progress insts committed: 2423716, IPC: 0.242129
13952385928596: Event_282: system.switch_cpus0 progress event, total committed:166196055, progress insts committed: 2221780, IPC: 0.221956
13952385928596: Event_283: system.switch_cpus1 progress event, total committed:166180272, progress insts committed: 2237388, IPC: 0.223515
13952385928596: Event_284: system.switch_cpus2 progress event, total committed:166189764, progress insts committed: 2233106, IPC: 0.223087
13952385928596: Event_285: system.switch_cpus3 progress event, total committed:166211256, progress insts committed: 2235250, IPC: 0.223301
13955719261929: Event_285: system.switch_cpus3 progress event, total committed:168254259, progress insts committed: 2043003, IPC: 0.204096
13955719261929: Event_284: system.switch_cpus2 progress event, total committed:168224613, progress insts committed: 2034849, IPC: 0.203281
13955719261929: Event_283: system.switch_cpus1 progress event, total committed:168213180, progress insts committed: 2032908, IPC: 0.203088
13955719261929: Event_282: system.switch_cpus0 progress event, total committed:168239948, progress insts committed: 2043893, IPC: 0.204185
13959052595262: Event_282: system.switch_cpus0 progress event, total committed:170255368, progress insts committed: 2015420, IPC: 00.20134
13959052595262: Event_283: system.switch_cpus1 progress event, total committed:170234796, progress insts committed: 2021616, IPC: 0.201959
13959052595262: Event_284: system.switch_cpus2 progress event, total committed:170238634, progress insts committed: 2014021, IPC: 0.201201
13959052595262: Event_285: system.switch_cpus3 progress event, total committed:170272150, progress insts committed: 2017891, IPC: 0.201587
13962385928595: Event_285: system.switch_cpus3 progress event, total committed:170457854, progress insts committed: 185704, IPC: 0.0185518
13962385928595: Event_284: system.switch_cpus2 progress event, total committed:170457530, progress insts committed: 218896, IPC: 0.0218677
13962385928595: Event_283: system.switch_cpus1 progress event, total committed:170457371, progress insts committed: 222575, IPC: 0.0222352
13962385928595: Event_282: system.switch_cpus0 progress event, total committed:170457676, progress insts committed: 202308, IPC: 0.0202106
13965719261928: Event_282: system.switch_cpus0 progress event, total committed:170629994, progress insts committed: 172318, IPC: 0.0172146
13965719261928: Event_283: system.switch_cpus1 progress event, total committed:170629654, progress insts committed: 172283, IPC: 0.0172111
13965719261928: Event_284: system.switch_cpus2 progress event, total committed:170629831, progress insts committed: 172301, IPC: 0.0172129
13965719261928: Event_285: system.switch_cpus3 progress event, total committed:170630158, progress insts committed: 172304, IPC: 0.0172132
13969052595261: Event_285: system.switch_cpus3 progress event, total committed:170804088, progress insts committed: 173930, IPC: 0.0173756
13969052595261: Event_284: system.switch_cpus2 progress event, total committed:170803788, progress insts committed: 173957, IPC: 0.0173783
13969052595261: Event_283: system.switch_cpus1 progress event, total committed:170803589, progress insts committed: 173935, IPC: 0.0173761
13969052595261: Event_282: system.switch_cpus0 progress event, total committed:170803915, progress insts committed: 173921, IPC: 0.0173747
13972385928594: Event_282: system.switch_cpus0 progress event, total committed:170962527, progress insts committed: 158612, IPC: 0.0158453
13972385928594: Event_283: system.switch_cpus1 progress event, total committed:170962244, progress insts committed: 158655, IPC: 0.0158496
13972385928594: Event_284: system.switch_cpus2 progress event, total committed:170962386, progress insts committed: 158598, IPC: 0.0158439
13972385928594: Event_285: system.switch_cpus3 progress event, total committed:170962614, progress insts committed: 158526, IPC: 0.0158367
13975719261927: Event_285: system.switch_cpus3 progress event, total committed:171136391, progress insts committed: 173777, IPC: 0.0173603
13975719261927: Event_284: system.switch_cpus2 progress event, total committed:171136163, progress insts committed: 173777, IPC: 0.0173603
13975719261927: Event_283: system.switch_cpus1 progress event, total committed:171136043, progress insts committed: 173799, IPC: 0.0173625
13975719261927: Event_282: system.switch_cpus0 progress event, total committed:171136336, progress insts committed: 173809, IPC: 0.0173635
13979052595260: Event_282: system.switch_cpus0 progress event, total committed:171309459, progress insts committed: 173123, IPC: 0.017295
13979052595260: Event_283: system.switch_cpus1 progress event, total committed:171309174, progress insts committed: 173131, IPC: 0.0172958
13979052595260: Event_284: system.switch_cpus2 progress event, total committed:171309315, progress insts committed: 173152, IPC: 0.0172979
13979052595260: Event_285: system.switch_cpus3 progress event, total committed:171309544, progress insts committed: 173153, IPC: 0.017298
13982385928593: Event_285: system.switch_cpus3 progress event, total committed:172017141, progress insts committed: 707597, IPC: 0.0706889
13982385928593: Event_284: system.switch_cpus2 progress event, total committed:171995121, progress insts committed: 685806, IPC: 0.068512
13982385928593: Event_283: system.switch_cpus1 progress event, total committed:171986577, progress insts committed: 677403, IPC: 0.0676726
13982385928593: Event_282: system.switch_cpus0 progress event, total committed:172010132, progress insts committed: 700673, IPC: 0.0699972
13985719261926: Event_282: system.switch_cpus0 progress event, total committed:174190078, progress insts committed: 2179946, IPC: 0.217777
13985719261926: Event_283: system.switch_cpus1 progress event, total committed:174175845, progress insts committed: 2189268, IPC: 0.218708
13985719261926: Event_284: system.switch_cpus2 progress event, total committed:174184519, progress insts committed: 2189398, IPC: 0.218721
13985719261926: Event_285: system.switch_cpus3 progress event, total committed:174199823, progress insts committed: 2182682, IPC: 00.21805
13989052595259: Event_285: system.switch_cpus3 progress event, total committed:176338636, progress insts committed: 2138813, IPC: 0.213667
13989052595259: Event_284: system.switch_cpus2 progress event, total committed:176314938, progress insts committed: 2130419, IPC: 0.212829
13989052595259: Event_283: system.switch_cpus1 progress event, total committed:176303769, progress insts committed: 2127924, IPC: 00.21258
13989052595259: Event_282: system.switch_cpus0 progress event, total committed:176328528, progress insts committed: 2138450, IPC: 0.213631
13992385928592: Event_282: system.switch_cpus0 progress event, total committed:178947125, progress insts committed: 2618597, IPC: 0.261598
13992385928592: Event_283: system.switch_cpus1 progress event, total committed:178925306, progress insts committed: 2621537, IPC: 0.261892
13992385928592: Event_284: system.switch_cpus2 progress event, total committed:178935176, progress insts committed: 2620238, IPC: 0.261762
13992385928592: Event_285: system.switch_cpus3 progress event, total committed:178953586, progress insts committed: 2614950, IPC: 0.261234
13995719261925: Event_285: system.switch_cpus3 progress event, total committed:181407458, progress insts committed: 2453872, IPC: 0.245142
13995719261925: Event_284: system.switch_cpus2 progress event, total committed:181391935, progress insts committed: 2456759, IPC: 00.24543
13995719261925: Event_283: system.switch_cpus1 progress event, total committed:181386085, progress insts committed: 2460779, IPC: 0.245832
13995719261925: Event_282: system.switch_cpus0 progress event, total committed:181399908, progress insts committed: 2452783, IPC: 0.245033
13999052595258: Event_282: system.switch_cpus0 progress event, total committed:183951936, progress insts committed: 2552028, IPC: 0.254948
13999052595258: Event_283: system.switch_cpus1 progress event, total committed:183937597, progress insts committed: 2551512, IPC: 0.254896
13999052595258: Event_284: system.switch_cpus2 progress event, total committed:183949276, progress insts committed: 2557341, IPC: 0.255478
13999052595258: Event_285: system.switch_cpus3 progress event, total committed:183960693, progress insts committed: 2553235, IPC: 0.255068
14002385928591: Event_285: system.switch_cpus3 progress event, total committed:186312703, progress insts committed: 2352010, IPC: 0.234966
14002385928591: Event_284: system.switch_cpus2 progress event, total committed:186308734, progress insts committed: 2359458, IPC: 00.23571
14002385928591: Event_283: system.switch_cpus1 progress event, total committed:186291884, progress insts committed: 2354287, IPC: 0.235193
14002385928591: Event_282: system.switch_cpus0 progress event, total committed:186305542, progress insts committed: 2353606, IPC: 0.235125
14005719261924: Event_282: system.switch_cpus0 progress event, total committed:188805807, progress insts committed: 2500265, IPC: 0.249776
14005719261924: Event_283: system.switch_cpus1 progress event, total committed:188799378, progress insts committed: 2507494, IPC: 0.250499
14005719261924: Event_284: system.switch_cpus2 progress event, total committed:188818862, progress insts committed: 2510128, IPC: 0.250762
14005719261924: Event_285: system.switch_cpus3 progress event, total committed:188820458, progress insts committed: 2507755, IPC: 0.250525
14009052595257: Event_285: system.switch_cpus3 progress event, total committed:191257711, progress insts committed: 2437253, IPC: 0.243482
14009052595257: Event_284: system.switch_cpus2 progress event, total committed:191257654, progress insts committed: 2438792, IPC: 0.243635
14009052595257: Event_283: system.switch_cpus1 progress event, total committed:191257363, progress insts committed: 2457985, IPC: 0.245553
14009052595257: Event_282: system.switch_cpus0 progress event, total committed:191257526, progress insts committed: 2451719, IPC: 0.244927
14012385928590: Event_282: system.switch_cpus0 progress event, total committed:193660912, progress insts committed: 2403386, IPC: 0.240098
14012385928590: Event_283: system.switch_cpus1 progress event, total committed:193639922, progress insts committed: 2382559, IPC: 0.238018
14012385928590: Event_284: system.switch_cpus2 progress event, total committed:193670548, progress insts committed: 2412894, IPC: 0.241048
14012385928590: Event_285: system.switch_cpus3 progress event, total committed:193670548, progress insts committed: 2412837, IPC: 0.241042
14015719261923: Event_285: system.switch_cpus3 progress event, total committed:196197537, progress insts committed: 2526989, IPC: 0.252446
14015719261923: Event_284: system.switch_cpus2 progress event, total committed:196197512, progress insts committed: 2526964, IPC: 0.252444
14015719261923: Event_283: system.switch_cpus1 progress event, total committed:196166010, progress insts committed: 2526088, IPC: 0.252356
14015719261923: Event_282: system.switch_cpus0 progress event, total committed:196178548, progress insts committed: 2517636, IPC: 0.251512
14019052595256: Event_282: system.switch_cpus0 progress event, total committed:198515360, progress insts committed: 2336812, IPC: 0.233448
14019052595256: Event_283: system.switch_cpus1 progress event, total committed:198504748, progress insts committed: 2338738, IPC: 00.23364
14019052595256: Event_284: system.switch_cpus2 progress event, total committed:198540660, progress insts committed: 2343148, IPC: 00.23408
14019052595256: Event_285: system.switch_cpus3 progress event, total committed:198540660, progress insts committed: 2343123, IPC: 0.234078
14022385928589: Event_285: system.switch_cpus3 progress event, total committed:201009764, progress insts committed: 2469104, IPC: 0.246663
14022385928589: Event_284: system.switch_cpus2 progress event, total committed:201008996, progress insts committed: 2468336, IPC: 0.246587
14022385928589: Event_283: system.switch_cpus1 progress event, total committed:200979179, progress insts committed: 2474431, IPC: 0.247196
14022385928589: Event_282: system.switch_cpus0 progress event, total committed:200990262, progress insts committed: 2474902, IPC: 0.247243
14025719261922: Event_282: system.switch_cpus0 progress event, total committed:203313012, progress insts committed: 2322750, IPC: 0.232043
14025719261922: Event_283: system.switch_cpus1 progress event, total committed:203307238, progress insts committed: 2328059, IPC: 0.232573
14025719261922: Event_284: system.switch_cpus2 progress event, total committed:203347872, progress insts committed: 2338876, IPC: 0.233654
14025719261922: Event_285: system.switch_cpus3 progress event, total committed:203348656, progress insts committed: 2338892, IPC: 0.233655
14029052595255: Event_285: system.switch_cpus3 progress event, total committed:205815348, progress insts committed: 2466692, IPC: 0.246423
14029052595255: Event_284: system.switch_cpus2 progress event, total committed:205815348, progress insts committed: 2467476, IPC: 0.246501
14029052595255: Event_283: system.switch_cpus1 progress event, total committed:205774614, progress insts committed: 2467376, IPC: 0.246491
14029052595255: Event_282: system.switch_cpus0 progress event, total committed:205784696, progress insts committed: 2471684, IPC: 0.246921
14032385928588: Event_282: system.switch_cpus0 progress event, total committed:208109199, progress insts committed: 2324503, IPC: 0.232218
14032385928588: Event_283: system.switch_cpus1 progress event, total committed:208100687, progress insts committed: 2326073, IPC: 0.232375
14032385928588: Event_284: system.switch_cpus2 progress event, total committed:208141765, progress insts committed: 2326417, IPC: 0.232409
14032385928588: Event_285: system.switch_cpus3 progress event, total committed:208143352, progress insts committed: 2328004, IPC: 0.232568
14035719261921: Event_285: system.switch_cpus3 progress event, total committed:210619082, progress insts committed: 2475730, IPC: 0.247325
14035719261921: Event_284: system.switch_cpus2 progress event, total committed:210616600, progress insts committed: 2474835, IPC: 0.247236
14035719261921: Event_283: system.switch_cpus1 progress event, total committed:210573461, progress insts committed: 2472774, IPC: 00.24703
14035719261921: Event_282: system.switch_cpus0 progress event, total committed:210578536, progress insts committed: 2469337, IPC: 0.246687
14039052595254: Event_282: system.switch_cpus0 progress event, total committed:212888936, progress insts committed: 2310400, IPC: 0.230809
14039052595254: Event_283: system.switch_cpus1 progress event, total committed:212886808, progress insts committed: 2313347, IPC: 0.231103
14039052595254: Event_284: system.switch_cpus2 progress event, total committed:212931078, progress insts committed: 2314478, IPC: 0.231216
14039052595254: Event_285: system.switch_cpus3 progress event, total committed:212931623, progress insts committed: 2312541, IPC: 0.231023
14042385928587: Event_285: system.switch_cpus3 progress event, total committed:215399884, progress insts committed: 2468261, IPC: 0.246579
14042385928587: Event_284: system.switch_cpus2 progress event, total committed:215399904, progress insts committed: 2468826, IPC: 0.246636
14042385928587: Event_283: system.switch_cpus1 progress event, total committed:215355163, progress insts committed: 2468355, IPC: 0.246589
14042385928587: Event_282: system.switch_cpus0 progress event, total committed:215355972, progress insts committed: 2467036, IPC: 0.246457
14045719261920: Event_282: system.switch_cpus0 progress event, total committed:217690844, progress insts committed: 2334872, IPC: 0.233254
14045719261920: Event_283: system.switch_cpus1 progress event, total committed:217690557, progress insts committed: 2335394, IPC: 0.233306
14045719261920: Event_284: system.switch_cpus2 progress event, total committed:217731103, progress insts committed: 2331199, IPC: 0.232887
14045719261920: Event_285: system.switch_cpus3 progress event, total committed:217731645, progress insts committed: 2331761, IPC: 0.232943
14049052595253: Event_285: system.switch_cpus3 progress event, total committed:220135745, progress insts committed: 2404100, IPC: 00.24017
14049052595253: Event_284: system.switch_cpus2 progress event, total committed:220137341, progress insts committed: 2406238, IPC: 0.240383
14049052595253: Event_283: system.switch_cpus1 progress event, total committed:220091475, progress insts committed: 2400918, IPC: 0.239852
14049052595253: Event_282: system.switch_cpus0 progress event, total committed:220097033, progress insts committed: 2406189, IPC: 0.240378
14052385928586: Event_282: system.switch_cpus0 progress event, total committed:222393076, progress insts committed: 2296043, IPC: 0.229375
14052385928586: Event_283: system.switch_cpus1 progress event, total committed:222392544, progress insts committed: 2301069, IPC: 0.229877
14052385928586: Event_284: system.switch_cpus2 progress event, total committed:222442896, progress insts committed: 2305555, IPC: 0.230325
14052385928586: Event_285: system.switch_cpus3 progress event, total committed:222438583, progress insts committed: 2302838, IPC: 0.230054
14055719261919: Event_285: system.switch_cpus3 progress event, total committed:224714845, progress insts committed: 2276262, IPC: 0.227399
14055719261919: Event_284: system.switch_cpus2 progress event, total committed:224716066, progress insts committed: 2273170, IPC: 00.22709
14055719261919: Event_283: system.switch_cpus1 progress event, total committed:224673931, progress insts committed: 2281387, IPC: 0.227911
14055719261919: Event_282: system.switch_cpus0 progress event, total committed:224673931, progress insts committed: 2280855, IPC: 0.227857
14059052595252: Event_282: system.switch_cpus0 progress event, total committed:227062232, progress insts committed: 2388301, IPC: 0.238591
14059052595252: Event_283: system.switch_cpus1 progress event, total committed:227062224, progress insts committed: 2388293, IPC: 00.23859
14059052595252: Event_284: system.switch_cpus2 progress event, total committed:227062744, progress insts committed: 2346678, IPC: 0.234433
14059052595252: Event_285: system.switch_cpus3 progress event, total committed:227062737, progress insts committed: 2347892, IPC: 0.234554
14062385928585: Event_285: system.switch_cpus3 progress event, total committed:229195034, progress insts committed: 2132297, IPC: 0.213016
14062385928585: Event_284: system.switch_cpus2 progress event, total committed:229200645, progress insts committed: 2137901, IPC: 0.213576
14062385928585: Event_283: system.switch_cpus1 progress event, total committed:229151825, progress insts committed: 2089601, IPC: 0.208751
14062385928585: Event_282: system.switch_cpus0 progress event, total committed:229155030, progress insts committed: 2092798, IPC: 0.209071
14065719261918: Event_282: system.switch_cpus0 progress event, total committed:231621283, progress insts committed: 2466253, IPC: 0.246379
14065719261918: Event_283: system.switch_cpus1 progress event, total committed:231620996, progress insts committed: 2469171, IPC: 00.24667
14065719261918: Event_284: system.switch_cpus2 progress event, total committed:231666148, progress insts committed: 2465503, IPC: 0.246304
14065719261918: Event_285: system.switch_cpus3 progress event, total committed:231664085, progress insts committed: 2469051, IPC: 0.246658
14069052595251: Event_285: system.switch_cpus3 progress event, total committed:233685935, progress insts committed: 2021850, IPC: 0.201983
14069052595251: Event_284: system.switch_cpus2 progress event, total committed:233687488, progress insts committed: 2021340, IPC: 0.201932
14069052595251: Event_283: system.switch_cpus1 progress event, total committed:233653434, progress insts committed: 2032438, IPC: 0.203041
14069052595251: Event_282: system.switch_cpus0 progress event, total committed:233659217, progress insts committed: 2037934, IPC: 00.20359
14072385928584: Event_282: system.switch_cpus0 progress event, total committed:235992915, progress insts committed: 2333698, IPC: 0.233136
14072385928584: Event_283: system.switch_cpus1 progress event, total committed:235993979, progress insts committed: 2340545, IPC: 00.23382
14072385928584: Event_284: system.switch_cpus2 progress event, total committed:236022286, progress insts committed: 2334798, IPC: 0.233246
14072385928584: Event_285: system.switch_cpus3 progress event, total committed:236019384, progress insts committed: 2333449, IPC: 0.233112
14075719261917: Event_285: system.switch_cpus3 progress event, total committed:238219466, progress insts committed: 2200082, IPC: 0.219788
14075719261917: Event_284: system.switch_cpus2 progress event, total committed:238219466, progress insts committed: 2197180, IPC: 0.219498
14075719261917: Event_283: system.switch_cpus1 progress event, total committed:238196456, progress insts committed: 2202477, IPC: 0.220027
14075719261917: Event_282: system.switch_cpus0 progress event, total committed:238194890, progress insts committed: 2201975, IPC: 0.219977
14079052595250: Event_282: system.switch_cpus0 progress event, total committed:240287677, progress insts committed: 2092787, IPC: 0.209069
14079052595250: Event_283: system.switch_cpus1 progress event, total committed:240287919, progress insts committed: 2091463, IPC: 0.208937
14079052595250: Event_284: system.switch_cpus2 progress event, total committed:240322371, progress insts committed: 2102905, IPC: 00.21008
14079052595250: Event_285: system.switch_cpus3 progress event, total committed:240321552, progress insts committed: 2102086, IPC: 0.209998
14082385928583: Event_285: system.switch_cpus3 progress event, total committed:242620211, progress insts committed: 2298659, IPC: 0.229636
14082385928583: Event_284: system.switch_cpus2 progress event, total committed:242620801, progress insts committed: 2298430, IPC: 0.229613
14082385928583: Event_283: system.switch_cpus1 progress event, total committed:242586879, progress insts committed: 2298960, IPC: 0.229666
14082385928583: Event_282: system.switch_cpus0 progress event, total committed:242583955, progress insts committed: 2296278, IPC: 0.229398
14085719261916: Event_282: system.switch_cpus0 progress event, total committed:244467972, progress insts committed: 1884017, IPC: 0.188213
14085719261916: Event_283: system.switch_cpus1 progress event, total committed:244467985, progress insts committed: 1881106, IPC: 0.187922
14085719261916: Event_284: system.switch_cpus2 progress event, total committed:244511472, progress insts committed: 1890671, IPC: 0.188878
14085719261916: Event_285: system.switch_cpus3 progress event, total committed:244510408, progress insts committed: 1890197, IPC: 0.188831
14089052595249: Event_285: system.switch_cpus3 progress event, total committed:246841556, progress insts committed: 2331148, IPC: 0.232882
14089052595249: Event_284: system.switch_cpus2 progress event, total committed:246840737, progress insts committed: 2329265, IPC: 0.232694
14089052595249: Event_283: system.switch_cpus1 progress event, total committed:246801334, progress insts committed: 2333349, IPC: 0.233102
14089052595249: Event_282: system.switch_cpus0 progress event, total committed:246797818, progress insts committed: 2329846, IPC: 0.232752
14092385928582: Event_282: system.switch_cpus0 progress event, total committed:248622110, progress insts committed: 1824292, IPC: 0.182247
14092385928582: Event_283: system.switch_cpus1 progress event, total committed:248622172, progress insts committed: 1820838, IPC: 0.181902
14092385928582: Event_284: system.switch_cpus2 progress event, total committed:248648625, progress insts committed: 1807888, IPC: 0.180608
14092385928582: Event_285: system.switch_cpus3 progress event, total committed:248650508, progress insts committed: 1808952, IPC: 0.180714
14095719261915: Event_285: system.switch_cpus3 progress event, total committed:251098922, progress insts committed: 2448414, IPC: 0.244597
14095719261915: Event_284: system.switch_cpus2 progress event, total committed:251097081, progress insts committed: 2448456, IPC: 0.244601
14095719261915: Event_283: system.switch_cpus1 progress event, total committed:251054662, progress insts committed: 2432490, IPC: 0.243006
14095719261915: Event_282: system.switch_cpus0 progress event, total committed:251053343, progress insts committed: 2431233, IPC: 00.24288
14099052595248: Event_282: system.switch_cpus0 progress event, total committed:252926502, progress insts committed: 1873159, IPC: 0.187129
14099052595248: Event_283: system.switch_cpus1 progress event, total committed:252926177, progress insts committed: 1871515, IPC: 0.186964
14099052595248: Event_284: system.switch_cpus2 progress event, total committed:252961273, progress insts committed: 1864192, IPC: 0.186233
14099052595248: Event_285: system.switch_cpus3 progress event, total committed:252961314, progress insts committed: 1862392, IPC: 0.186053
14102385928581: Event_285: system.switch_cpus3 progress event, total committed:255163366, progress insts committed: 2202052, IPC: 0.219985
14102385928581: Event_284: system.switch_cpus2 progress event, total committed:255163366, progress insts committed: 2202093, IPC: 0.219989
14102385928581: Event_283: system.switch_cpus1 progress event, total committed:255123597, progress insts committed: 2197420, IPC: 0.219522
14102385928581: Event_282: system.switch_cpus0 progress event, total committed:255121994, progress insts committed: 2195492, IPC: 00.21933
14105719261914: Event_282: system.switch_cpus0 progress event, total committed:257256123, progress insts committed: 2134129, IPC: 0.213199
14105719261914: Event_283: system.switch_cpus1 progress event, total committed:257249251, progress insts committed: 2125654, IPC: 0.212353
14105719261914: Event_284: system.switch_cpus2 progress event, total committed:257270275, progress insts committed: 2106909, IPC: 00.21048
14105719261914: Event_285: system.switch_cpus3 progress event, total committed:257270275, progress insts committed: 2106909, IPC: 00.21048
14109052595247: Event_285: system.switch_cpus3 progress event, total committed:259124025, progress insts committed: 1853750, IPC: 00.18519
14109052595247: Event_284: system.switch_cpus2 progress event, total committed:259120591, progress insts committed: 1850316, IPC: 0.184847
14109052595247: Event_283: system.switch_cpus1 progress event, total committed:259079513, progress insts committed: 1830262, IPC: 0.182843
14109052595247: Event_282: system.switch_cpus0 progress event, total committed:259087233, progress insts committed: 1831110, IPC: 0.182928
14112385928580: Event_282: system.switch_cpus0 progress event, total committed:261380041, progress insts committed: 2292808, IPC: 0.229052
14112385928580: Event_283: system.switch_cpus1 progress event, total committed:261374679, progress insts committed: 2295166, IPC: 0.229287
14112385928580: Event_284: system.switch_cpus2 progress event, total committed:261420486, progress insts committed: 2299895, IPC: 00.22976
14112385928580: Event_285: system.switch_cpus3 progress event, total committed:261426089, progress insts committed: 2302064, IPC: 0.229976
14115719261913: Event_285: system.switch_cpus3 progress event, total committed:263021766, progress insts committed: 1595677, IPC: 0.159408
14115719261913: Event_284: system.switch_cpus2 progress event, total committed:263020944, progress insts committed: 1600458, IPC: 0.159886
14115719261913: Event_283: system.switch_cpus1 progress event, total committed:262962845, progress insts committed: 1588166, IPC: 0.158658
14115719261913: Event_282: system.switch_cpus0 progress event, total committed:262973772, progress insts committed: 1593731, IPC: 0.159214
14119052595246: Event_282: system.switch_cpus0 progress event, total committed:265501104, progress insts committed: 2527332, IPC: 00.25248
14119052595246: Event_283: system.switch_cpus1 progress event, total committed:265500872, progress insts committed: 2538027, IPC: 0.253549
14119052595246: Event_284: system.switch_cpus2 progress event, total committed:265501758, progress insts committed: 2480814, IPC: 0.247833
14119052595246: Event_285: system.switch_cpus3 progress event, total committed:265501758, progress insts committed: 2479992, IPC: 0.247751
14122385928579: Event_285: system.switch_cpus3 progress event, total committed:267164885, progress insts committed: 1663127, IPC: 0.166146
14122385928579: Event_284: system.switch_cpus2 progress event, total committed:267165414, progress insts committed: 1663656, IPC: 0.166199
14122385928579: Event_283: system.switch_cpus1 progress event, total committed:267153597, progress insts committed: 1652725, IPC: 0.165107
14122385928579: Event_282: system.switch_cpus0 progress event, total committed:267153708, progress insts committed: 1652604, IPC: 0.165095
14125719261912: Event_282: system.switch_cpus0 progress event, total committed:269451081, progress insts committed: 2297373, IPC: 0.229508
14125719261912: Event_283: system.switch_cpus1 progress event, total committed:269445229, progress insts committed: 2291632, IPC: 0.228934
14125719261912: Event_284: system.switch_cpus2 progress event, total committed:269554759, progress insts committed: 2389345, IPC: 0.238696
14125719261912: Event_285: system.switch_cpus3 progress event, total committed:269554517, progress insts committed: 2389632, IPC: 0.238724
14129052595245: Event_285: system.switch_cpus3 progress event, total committed:271406207, progress insts committed: 1851690, IPC: 0.184984
14129052595245: Event_284: system.switch_cpus2 progress event, total committed:271406207, progress insts committed: 1851448, IPC: 00.18496
14129052595245: Event_283: system.switch_cpus1 progress event, total committed:271373841, progress insts committed: 1928612, IPC: 0.192668
14129052595245: Event_282: system.switch_cpus0 progress event, total committed:271373923, progress insts committed: 1922842, IPC: 0.192092
14132385928578: Event_282: system.switch_cpus0 progress event, total committed:273280436, progress insts committed: 1906513, IPC: 0.190461
14132385928578: Event_283: system.switch_cpus1 progress event, total committed:273273230, progress insts committed: 1899389, IPC: 0.189749
14132385928578: Event_284: system.switch_cpus2 progress event, total committed:273395818, progress insts committed: 1989611, IPC: 0.198762
14132385928578: Event_285: system.switch_cpus3 progress event, total committed:273389217, progress insts committed: 1983010, IPC: 0.198103
Exiting @ tick 14134996196991 because a thread reached the max instruction count
