Command line:
./runscript_pride.sh mix3 RFM5.BR1.4C 4 2017 --rh_defense --rh_mitigation=RFM --rh_rfm_per_trefi=5 --rh_rfm_blast_radius=1 --rh_rfm_maxacts_per_trefi=79
Global frequency set at 1000000000000 ticks per second
RFM details - rfm_act_threshold: 15, blast_radius: 1, delay_per_rfm: 175000 ps. sample_rate: 0.062500
RH Defense config: RFM, Bus Delay: 0, rfms_per_trefi: 5, rfm_act_threshold: 15, blast_radius: 1,rfm_delay_per_act: 45000 ps.
DRAM config: RowsPerBank: 65536, BanksPerRank: 32, RanksPerChannel: 1
warn: Sockets disabled, not accepting gdb connections
warn: CoherentXBar system.cpu0.mmucache.mmubus has no snooping ports attached!
warn: CoherentXBar system.cpu1.mmucache.mmubus has no snooping ports attached!
warn: CoherentXBar system.cpu2.mmucache.mmubus has no snooping ports attached!
warn: CoherentXBar system.cpu3.mmucache.mmubus has no snooping ports attached!
warn: Checkpoints for file descriptors currently do not work.
warn: Checkpoints for file descriptors currently do not work.
warn: Checkpoints for file descriptors currently do not work.
warn: Checkpoints for file descriptors currently do not work.
gem5 Simulator System.  http://gem5.org
gem5 is copyrighted software; use the --copyright option for details.

gem5 version 20.1.0.5
gem5 compiled Jul 12 2024 12:42:38
gem5 started Jul 31 2024 18:03:01
gem5 executing on a07dda8b130c, pid 241834
command line: /home/user/PrIDE/performance/gem5/build/X86/gem5.opt --outdir=/home/user/PrIDE/performance/gem5/stats/pride_multiprogram_16GBmem_250Mn.SPEC2017.C4/RFM5.BR1.4C/mix3 /home/user/PrIDE/performance/gem5/configs/example/se_rq_spec_config_multicore.py --redirects /lib64=/home/utils/gcc-6.2.0/lib64 --benchmark=mix3 --benchmark_stdout=/home/user/PrIDE/performance/gem5/stats/pride_multiprogram_16GBmem_250Mn.SPEC2017.C4/RFM5.BR1.4C/mix3/mix3.out --benchmark_stderr=/home/user/PrIDE/performance/gem5/stats/pride_multiprogram_16GBmem_250Mn.SPEC2017.C4/RFM5.BR1.4C/mix3/mix3.err --spec-version=2017 --rh_defense --rh_mitigation=RFM --rh_rfm_per_trefi=5 --rh_rfm_blast_radius=1 --rh_rfm_maxacts_per_trefi=79 --num-cpus=4 --mem-size=16GB --mem-type=DDR5_2400_32x4 --mem-ranks=1 --mem-channels=1 --checkpoint-dir=/home/user/PrIDE/performance/gem5/cpts-DDR5/multiprogram_16GBmem_25Bn.SPEC2017.C4/mix3-1-ref-x86 --checkpoint-restore=25000000000 --at-instruction --cpu-type DerivO3CPU --caches --l2cache --l1d_size=32kB --l1i_size=32kB --l2_size=256kB --l3_size=4MB --l1d_assoc=8 --l1i_assoc=8 --l2_assoc=16 --l3_assoc=16 --cpu-clock=3GHz --sys-clock=3GHz --maxinsts=250000000 --prog-interval=300Hz

info: Standard input is not a terminal, disabling listeners.
Benchmark- 0   exchange2
Selected benchmark
--> exchange2
CMD: ['/opt/spec2017/benchspec/CPU/548.exchange2_r/run/run_base_refrate_gem5_se-m64.0000/exchange2_r_base.gem5_se-m64', '6']
CWD: /opt/spec2017/benchspec/CPU/548.exchange2_r/run/run_base_refrate_gem5_se-m64.0000/
Process stdout file: /home/user/PrIDE/performance/gem5/stats/pride_multiprogram_16GBmem_250Mn.SPEC2017.C4/RFM5.BR1.4C/mix3/mix3.out_0
Process stderr file: /home/user/PrIDE/performance/gem5/stats/pride_multiprogram_16GBmem_250Mn.SPEC2017.C4/RFM5.BR1.4C/mix3/mix3.err_0
Benchmark- 1   roms
Selected benchmark
--> roms
CMD: ['/opt/spec2017/benchspec/CPU/554.roms_r/run/run_base_refrate_gem5_se-m64.0000/roms_r_base.gem5_se-m64']
CWD: /opt/spec2017/benchspec/CPU/554.roms_r/run/run_base_refrate_gem5_se-m64.0000/
Process stdout file: /home/user/PrIDE/performance/gem5/stats/pride_multiprogram_16GBmem_250Mn.SPEC2017.C4/RFM5.BR1.4C/mix3/mix3.out_1
Process stderr file: /home/user/PrIDE/performance/gem5/stats/pride_multiprogram_16GBmem_250Mn.SPEC2017.C4/RFM5.BR1.4C/mix3/mix3.err_1
Benchmark- 2   imagick
Selected benchmark
--> imagick
CMD: ['/opt/spec2017/benchspec/CPU/538.imagick_r/run/run_base_refrate_gem5_se-m64.0000/imagick_r_base.gem5_se-m64', '-limit', 'disk', '0', '/opt/spec2017/benchspec/CPU/538.imagick_r/run/run_base_refrate_gem5_se-m64.0000/refrate_input.tga', '-edge', '41', '-resample', '181%', '-emboss', '31', '-colorspace', 'YUV', '-mean-shift', '19x19+15%', '-resize', '30%', '/opt/spec2017/benchspec/CPU/538.imagick_r/run/run_base_refrate_gem5_se-m64.0000/refrate_output.tga']
CWD: /opt/spec2017/benchspec/CPU/538.imagick_r/run/run_base_refrate_gem5_se-m64.0000/
Process stdout file: /home/user/PrIDE/performance/gem5/stats/pride_multiprogram_16GBmem_250Mn.SPEC2017.C4/RFM5.BR1.4C/mix3/mix3.out_2
Process stderr file: /home/user/PrIDE/performance/gem5/stats/pride_multiprogram_16GBmem_250Mn.SPEC2017.C4/RFM5.BR1.4C/mix3/mix3.err_2
Benchmark- 3   xz
Selected benchmark
--> xz
CMD: ['/opt/spec2017/benchspec/CPU/557.xz_r/run/run_base_refrate_gem5_se-m64.0000/xz_r_base.gem5_se-m64', '/opt/spec2017/benchspec/CPU/557.xz_r/run/run_base_refrate_gem5_se-m64.0000/cld.tar.xz', '160', '19cf30ae51eddcbefda78dd06014b4b96281456e078ca7c13e1c0c9e6aaea8dff3efb4ad6b0456697718cede6bd5454852652806a657bb56e07d61128434b474', '59796407', '61004416', '6']
CWD: /opt/spec2017/benchspec/CPU/557.xz_r/run/run_base_refrate_gem5_se-m64.0000/
Process stdout file: /home/user/PrIDE/performance/gem5/stats/pride_multiprogram_16GBmem_250Mn.SPEC2017.C4/RFM5.BR1.4C/mix3/mix3.out_3
Process stderr file: /home/user/PrIDE/performance/gem5/stats/pride_multiprogram_16GBmem_250Mn.SPEC2017.C4/RFM5.BR1.4C/mix3/mix3.err_3
Workload-0: 
['/opt/spec2017/benchspec/CPU/548.exchange2_r/run/run_base_refrate_gem5_se-m64.0000/exchange2_r_base.gem5_se-m64', '6']
Workload-1: 
['/opt/spec2017/benchspec/CPU/554.roms_r/run/run_base_refrate_gem5_se-m64.0000/roms_r_base.gem5_se-m64']
Workload-2: 
['/opt/spec2017/benchspec/CPU/538.imagick_r/run/run_base_refrate_gem5_se-m64.0000/imagick_r_base.gem5_se-m64', '-limit', 'disk', '0', '/opt/spec2017/benchspec/CPU/538.imagick_r/run/run_base_refrate_gem5_se-m64.0000/refrate_input.tga', '-edge', '41', '-resample', '181%', '-emboss', '31', '-colorspace', 'YUV', '-mean-shift', '19x19+15%', '-resize', '30%', '/opt/spec2017/benchspec/CPU/538.imagick_r/run/run_base_refrate_gem5_se-m64.0000/refrate_output.tga']
Workload-3: 
['/opt/spec2017/benchspec/CPU/557.xz_r/run/run_base_refrate_gem5_se-m64.0000/xz_r_base.gem5_se-m64', '/opt/spec2017/benchspec/CPU/557.xz_r/run/run_base_refrate_gem5_se-m64.0000/cld.tar.xz', '160', '19cf30ae51eddcbefda78dd06014b4b96281456e078ca7c13e1c0c9e6aaea8dff3efb4ad6b0456697718cede6bd5454852652806a657bb56e07d61128434b474', '59796407', '61004416', '6']
defense_enable:  True  detector:  MG  mitigation:  RFM  threshold:  800
mg_entries:  1700
rfm_maxacts_per_trefi:  79 rfm_per_trefi:  5 rfm_blast_radius:  1
Switch at curTick count:10000
warn: membus.master is deprecated. `master` is now called `mem_side_ports`
warn: No dot file generated. Please install pydot to generate the dot file and pdf.
info: Entering event queue @ 14950446118803.  Starting simulation...
warn: MOVNTDQ: Ignoring non-temporal hint, modeling as cacheable!
warn: PowerState: Already in the requested power state, request ignored
Switched CPUS @ tick 14950446128803
switching cpus
**** REAL SIMULATION ****
info: Entering event queue @ 14950446128803.  Starting simulation...
14953779452136: Event_285: system.switch_cpus3 progress event, total committed:16317271, progress insts committed: 16317271, IPC: 001.6301
14953779452136: Event_284: system.switch_cpus2 progress event, total committed:51937641, progress insts committed: 51937641, IPC: 05.18857
14953779452136: Event_283: system.switch_cpus1 progress event, total committed:48019375, progress insts committed: 48019375, IPC: 04.79714
14953779452136: Event_282: system.switch_cpus0 progress event, total committed:34483361, progress insts committed: 34483361, IPC: 03.44489
14957112785469: Event_282: system.switch_cpus0 progress event, total committed:70956952, progress insts committed: 36473591, IPC: 03.64371
14957112785469: Event_283: system.switch_cpus1 progress event, total committed:96855511, progress insts committed: 48836136, IPC: 04.87873
14957112785469: Event_284: system.switch_cpus2 progress event, total committed:105288977, progress insts committed: 53351336, IPC: 005.3298
14957112785469: Event_285: system.switch_cpus3 progress event, total committed:32914074, progress insts committed: 16596803, IPC: 01.65802
14960446118802: Event_285: system.switch_cpus3 progress event, total committed:49560956, progress insts committed: 16646882, IPC: 01.66302
14960446118802: Event_284: system.switch_cpus2 progress event, total committed:131600765, progress insts committed: 26311788, IPC: 02.62855
14960446118802: Event_283: system.switch_cpus1 progress event, total committed:146077132, progress insts committed: 49221621, IPC: 04.91724
14960446118802: Event_282: system.switch_cpus0 progress event, total committed:107883446, progress insts committed: 36926494, IPC: 03.68896
14963779452135: Event_282: system.switch_cpus0 progress event, total committed:142558715, progress insts committed: 34675269, IPC: 03.46406
14963779452135: Event_283: system.switch_cpus1 progress event, total committed:194729724, progress insts committed: 48652592, IPC: 04.86039
14963779452135: Event_284: system.switch_cpus2 progress event, total committed:185435017, progress insts committed: 53834252, IPC: 05.37804
14963779452135: Event_285: system.switch_cpus3 progress event, total committed:66230941, progress insts committed: 16669985, IPC: 01.66533
14967112785468: Event_285: system.switch_cpus3 progress event, total committed:82684410, progress insts committed: 16453469, IPC: 001.6437
14967112785468: Event_284: system.switch_cpus2 progress event, total committed:239121754, progress insts committed: 53686737, IPC: 05.36331
14967112785468: Event_283: system.switch_cpus1 progress event, total committed:223716180, progress insts committed: 28986456, IPC: 02.89575
14967112785468: Event_282: system.switch_cpus0 progress event, total committed:178274114, progress insts committed: 35715399, IPC: 03.56797
14970446118801: Event_282: system.switch_cpus0 progress event, total committed:215255434, progress insts committed: 36981320, IPC: 03.69443
14970446118801: Event_283: system.switch_cpus1 progress event, total committed:274556051, progress insts committed: 50839871, IPC: 005.0789
14970446118801: Event_284: system.switch_cpus2 progress event, total committed:292462242, progress insts committed: 53340488, IPC: 05.32871
14970446118801: Event_285: system.switch_cpus3 progress event, total committed:99306927, progress insts committed: 16622517, IPC: 01.66059
14973779452134: Event_285: system.switch_cpus3 progress event, total committed:115767669, progress insts committed: 16460742, IPC: 01.64443
14973779452134: Event_284: system.switch_cpus2 progress event, total committed:345760811, progress insts committed: 53298569, IPC: 05.32453
14973779452134: Event_283: system.switch_cpus1 progress event, total committed:324550483, progress insts committed: 49994432, IPC: 04.99444
14973779452134: Event_282: system.switch_cpus0 progress event, total committed:252125922, progress insts committed: 36870488, IPC: 03.68336
14977112785467: Event_282: system.switch_cpus0 progress event, total committed:291968045, progress insts committed: 39842123, IPC: 03.98023
14977112785467: Event_283: system.switch_cpus1 progress event, total committed:373686483, progress insts committed: 49136000, IPC: 04.90869
14977112785467: Event_284: system.switch_cpus2 progress event, total committed:399077238, progress insts committed: 53316427, IPC: 05.32631
14977112785467: Event_285: system.switch_cpus3 progress event, total committed:132234459, progress insts committed: 16466790, IPC: 01.64503
Exiting @ tick 14978618459262 because a thread reached the max instruction count
