
---------- Begin Simulation Statistics ----------
final_tick                               15742173562506                       # Number of ticks from beginning of simulation (restored from checkpoints and never reset)
host_inst_rate                                 131292                       # Simulator instruction rate (inst/s)
host_mem_usage                               17618616                       # Number of bytes of host memory used
host_op_rate                                   216746                       # Simulator op (including micro ops) rate (op/s)
host_seconds                                  7615.69                       # Real time elapsed on the host
host_tick_rate                               11938048                       # Simulator tick rate (ticks/s)
sim_freq                                 1000000000000                       # Frequency of simulated ticks
sim_insts                                   999882180                       # Number of instructions simulated
sim_ops                                    1650674016                       # Number of ops (including micro ops) simulated
sim_seconds                                  0.090916                       # Number of seconds simulated
sim_ticks                                 90916485174                       # Number of ticks simulated
system.cpu0.Branches                                1                       # Number of branches fetched
system.cpu0.committedInsts                         14                       # Number of instructions committed
system.cpu0.committedOps                           23                       # Number of ops (including micro ops) committed
system.cpu0.idle_fraction                           0                       # Percentage of idle cycles
system.cpu0.l2bus.snoop_filter.hit_multi_requests            2                       # Number of requests hitting in the snoop filter with multiple (>1) holders of the requested data.
system.cpu0.l2bus.snoop_filter.hit_multi_snoops            0                       # Number of snoops hitting in the snoop filter with multiple (>1) holders of the requested data.
system.cpu0.l2bus.snoop_filter.hit_single_requests      2574776                       # Number of requests hitting in the snoop filter with a single holder of the requested data.
system.cpu0.l2bus.snoop_filter.hit_single_snoops         6231                       # Number of snoops hitting in the snoop filter with a single holder of the requested data.
system.cpu0.l2bus.snoop_filter.tot_requests      5019400                       # Total number of requests made to the snoop filter.
system.cpu0.l2bus.snoop_filter.tot_snoops         6231                       # Total number of snoops made to the snoop filter.
system.cpu0.mmucache.mmubus.snoop_filter.hit_multi_requests            0                       # Number of requests hitting in the snoop filter with multiple (>1) holders of the requested data.
system.cpu0.mmucache.mmubus.snoop_filter.hit_multi_snoops            0                       # Number of snoops hitting in the snoop filter with multiple (>1) holders of the requested data.
system.cpu0.mmucache.mmubus.snoop_filter.hit_single_requests            0                       # Number of requests hitting in the snoop filter with a single holder of the requested data.
system.cpu0.mmucache.mmubus.snoop_filter.hit_single_snoops            0                       # Number of snoops hitting in the snoop filter with a single holder of the requested data.
system.cpu0.mmucache.mmubus.snoop_filter.tot_requests            0                       # Total number of requests made to the snoop filter.
system.cpu0.mmucache.mmubus.snoop_filter.tot_snoops            0                       # Total number of snoops made to the snoop filter.
system.cpu0.not_idle_fraction                       1                       # Percentage of non-idle cycles
system.cpu0.numCycles                              30                       # number of cpu cycles simulated
system.cpu0.numWorkItemsCompleted                   0                       # number of work items this cpu completed
system.cpu0.numWorkItemsStarted                     0                       # number of work items this cpu started
system.cpu0.num_busy_cycles                        30                       # Number of busy cycles
system.cpu0.num_cc_register_reads                   5                       # number of times the CC registers were read
system.cpu0.num_cc_register_writes                  8                       # number of times the CC registers were written
system.cpu0.num_conditional_control_insts            1                       # number of instructions that are conditional controls
system.cpu0.num_fp_alu_accesses                    12                       # Number of float alu accesses
system.cpu0.num_fp_insts                           12                       # number of float instructions
system.cpu0.num_fp_register_reads                  21                       # number of times the floating registers were read
system.cpu0.num_fp_register_writes                 11                       # number of times the floating registers were written
system.cpu0.num_func_calls                          0                       # number of times a function call or return occured
system.cpu0.num_idle_cycles                         0                       # Number of idle cycles
system.cpu0.num_int_alu_accesses                   16                       # Number of integer alu accesses
system.cpu0.num_int_insts                          16                       # number of integer instructions
system.cpu0.num_int_register_reads                 33                       # number of times the integer registers were read
system.cpu0.num_int_register_writes                10                       # number of times the integer registers were written
system.cpu0.num_load_insts                          6                       # Number of load instructions
system.cpu0.num_mem_refs                            7                       # number of memory refs
system.cpu0.num_store_insts                         1                       # Number of store instructions
system.cpu0.num_vec_alu_accesses                    0                       # Number of vector alu accesses
system.cpu0.num_vec_insts                           0                       # number of vector instructions
system.cpu0.num_vec_register_reads                  0                       # number of times the vector registers were read
system.cpu0.num_vec_register_writes                 0                       # number of times the vector registers were written
system.cpu0.op_class::No_OpClass                    0      0.00%      0.00% # Class of executed instruction
system.cpu0.op_class::IntAlu                       10     43.48%     43.48% # Class of executed instruction
system.cpu0.op_class::IntMult                       0      0.00%     43.48% # Class of executed instruction
system.cpu0.op_class::IntDiv                        0      0.00%     43.48% # Class of executed instruction
system.cpu0.op_class::FloatAdd                      0      0.00%     43.48% # Class of executed instruction
system.cpu0.op_class::FloatCmp                      0      0.00%     43.48% # Class of executed instruction
system.cpu0.op_class::FloatCvt                      0      0.00%     43.48% # Class of executed instruction
system.cpu0.op_class::FloatMult                     0      0.00%     43.48% # Class of executed instruction
system.cpu0.op_class::FloatMultAcc                  0      0.00%     43.48% # Class of executed instruction
system.cpu0.op_class::FloatDiv                      0      0.00%     43.48% # Class of executed instruction
system.cpu0.op_class::FloatMisc                     0      0.00%     43.48% # Class of executed instruction
system.cpu0.op_class::FloatSqrt                     0      0.00%     43.48% # Class of executed instruction
system.cpu0.op_class::SimdAdd                       0      0.00%     43.48% # Class of executed instruction
system.cpu0.op_class::SimdAddAcc                    0      0.00%     43.48% # Class of executed instruction
system.cpu0.op_class::SimdAlu                       0      0.00%     43.48% # Class of executed instruction
system.cpu0.op_class::SimdCmp                       0      0.00%     43.48% # Class of executed instruction
system.cpu0.op_class::SimdCvt                       0      0.00%     43.48% # Class of executed instruction
system.cpu0.op_class::SimdMisc                      0      0.00%     43.48% # Class of executed instruction
system.cpu0.op_class::SimdMult                      0      0.00%     43.48% # Class of executed instruction
system.cpu0.op_class::SimdMultAcc                   0      0.00%     43.48% # Class of executed instruction
system.cpu0.op_class::SimdShift                     0      0.00%     43.48% # Class of executed instruction
system.cpu0.op_class::SimdShiftAcc                  0      0.00%     43.48% # Class of executed instruction
system.cpu0.op_class::SimdDiv                       0      0.00%     43.48% # Class of executed instruction
system.cpu0.op_class::SimdSqrt                      0      0.00%     43.48% # Class of executed instruction
system.cpu0.op_class::SimdFloatAdd                  4     17.39%     60.87% # Class of executed instruction
system.cpu0.op_class::SimdFloatAlu                  0      0.00%     60.87% # Class of executed instruction
system.cpu0.op_class::SimdFloatCmp                  0      0.00%     60.87% # Class of executed instruction
system.cpu0.op_class::SimdFloatCvt                  0      0.00%     60.87% # Class of executed instruction
system.cpu0.op_class::SimdFloatDiv                  0      0.00%     60.87% # Class of executed instruction
system.cpu0.op_class::SimdFloatMisc                 0      0.00%     60.87% # Class of executed instruction
system.cpu0.op_class::SimdFloatMult                 2      8.70%     69.57% # Class of executed instruction
system.cpu0.op_class::SimdFloatMultAcc              0      0.00%     69.57% # Class of executed instruction
system.cpu0.op_class::SimdFloatSqrt                 0      0.00%     69.57% # Class of executed instruction
system.cpu0.op_class::SimdReduceAdd                 0      0.00%     69.57% # Class of executed instruction
system.cpu0.op_class::SimdReduceAlu                 0      0.00%     69.57% # Class of executed instruction
system.cpu0.op_class::SimdReduceCmp                 0      0.00%     69.57% # Class of executed instruction
system.cpu0.op_class::SimdFloatReduceAdd            0      0.00%     69.57% # Class of executed instruction
system.cpu0.op_class::SimdFloatReduceCmp            0      0.00%     69.57% # Class of executed instruction
system.cpu0.op_class::SimdAes                       0      0.00%     69.57% # Class of executed instruction
system.cpu0.op_class::SimdAesMix                    0      0.00%     69.57% # Class of executed instruction
system.cpu0.op_class::SimdSha1Hash                  0      0.00%     69.57% # Class of executed instruction
system.cpu0.op_class::SimdSha1Hash2                 0      0.00%     69.57% # Class of executed instruction
system.cpu0.op_class::SimdSha256Hash                0      0.00%     69.57% # Class of executed instruction
system.cpu0.op_class::SimdSha256Hash2               0      0.00%     69.57% # Class of executed instruction
system.cpu0.op_class::SimdShaSigma2                 0      0.00%     69.57% # Class of executed instruction
system.cpu0.op_class::SimdShaSigma3                 0      0.00%     69.57% # Class of executed instruction
system.cpu0.op_class::SimdPredAlu                   0      0.00%     69.57% # Class of executed instruction
system.cpu0.op_class::MemRead                       2      8.70%     78.26% # Class of executed instruction
system.cpu0.op_class::MemWrite                      0      0.00%     78.26% # Class of executed instruction
system.cpu0.op_class::FloatMemRead                  4     17.39%     95.65% # Class of executed instruction
system.cpu0.op_class::FloatMemWrite                 1      4.35%    100.00% # Class of executed instruction
system.cpu0.op_class::IprAccess                     0      0.00%    100.00% # Class of executed instruction
system.cpu0.op_class::InstPrefetch                  0      0.00%    100.00% # Class of executed instruction
system.cpu0.op_class::total                        23                       # Class of executed instruction
system.cpu0.workload.numSyscalls                    0                       # Number of system calls
system.cpu1.Branches                                1                       # Number of branches fetched
system.cpu1.committedInsts                         14                       # Number of instructions committed
system.cpu1.committedOps                           23                       # Number of ops (including micro ops) committed
system.cpu1.idle_fraction                           0                       # Percentage of idle cycles
system.cpu1.l2bus.snoop_filter.hit_multi_requests            2                       # Number of requests hitting in the snoop filter with multiple (>1) holders of the requested data.
system.cpu1.l2bus.snoop_filter.hit_multi_snoops            0                       # Number of snoops hitting in the snoop filter with multiple (>1) holders of the requested data.
system.cpu1.l2bus.snoop_filter.hit_single_requests      2574640                       # Number of requests hitting in the snoop filter with a single holder of the requested data.
system.cpu1.l2bus.snoop_filter.hit_single_snoops         6171                       # Number of snoops hitting in the snoop filter with a single holder of the requested data.
system.cpu1.l2bus.snoop_filter.tot_requests      5019126                       # Total number of requests made to the snoop filter.
system.cpu1.l2bus.snoop_filter.tot_snoops         6171                       # Total number of snoops made to the snoop filter.
system.cpu1.mmucache.mmubus.snoop_filter.hit_multi_requests            0                       # Number of requests hitting in the snoop filter with multiple (>1) holders of the requested data.
system.cpu1.mmucache.mmubus.snoop_filter.hit_multi_snoops            0                       # Number of snoops hitting in the snoop filter with multiple (>1) holders of the requested data.
system.cpu1.mmucache.mmubus.snoop_filter.hit_single_requests            0                       # Number of requests hitting in the snoop filter with a single holder of the requested data.
system.cpu1.mmucache.mmubus.snoop_filter.hit_single_snoops            0                       # Number of snoops hitting in the snoop filter with a single holder of the requested data.
system.cpu1.mmucache.mmubus.snoop_filter.tot_requests            0                       # Total number of requests made to the snoop filter.
system.cpu1.mmucache.mmubus.snoop_filter.tot_snoops            0                       # Total number of snoops made to the snoop filter.
system.cpu1.not_idle_fraction                       1                       # Percentage of non-idle cycles
system.cpu1.numCycles                              30                       # number of cpu cycles simulated
system.cpu1.numWorkItemsCompleted                   0                       # number of work items this cpu completed
system.cpu1.numWorkItemsStarted                     0                       # number of work items this cpu started
system.cpu1.num_busy_cycles                        30                       # Number of busy cycles
system.cpu1.num_cc_register_reads                   5                       # number of times the CC registers were read
system.cpu1.num_cc_register_writes                  8                       # number of times the CC registers were written
system.cpu1.num_conditional_control_insts            1                       # number of instructions that are conditional controls
system.cpu1.num_fp_alu_accesses                    12                       # Number of float alu accesses
system.cpu1.num_fp_insts                           12                       # number of float instructions
system.cpu1.num_fp_register_reads                  21                       # number of times the floating registers were read
system.cpu1.num_fp_register_writes                 11                       # number of times the floating registers were written
system.cpu1.num_func_calls                          0                       # number of times a function call or return occured
system.cpu1.num_idle_cycles                         0                       # Number of idle cycles
system.cpu1.num_int_alu_accesses                   16                       # Number of integer alu accesses
system.cpu1.num_int_insts                          16                       # number of integer instructions
system.cpu1.num_int_register_reads                 33                       # number of times the integer registers were read
system.cpu1.num_int_register_writes                10                       # number of times the integer registers were written
system.cpu1.num_load_insts                          6                       # Number of load instructions
system.cpu1.num_mem_refs                            7                       # number of memory refs
system.cpu1.num_store_insts                         1                       # Number of store instructions
system.cpu1.num_vec_alu_accesses                    0                       # Number of vector alu accesses
system.cpu1.num_vec_insts                           0                       # number of vector instructions
system.cpu1.num_vec_register_reads                  0                       # number of times the vector registers were read
system.cpu1.num_vec_register_writes                 0                       # number of times the vector registers were written
system.cpu1.op_class::No_OpClass                    0      0.00%      0.00% # Class of executed instruction
system.cpu1.op_class::IntAlu                       10     43.48%     43.48% # Class of executed instruction
system.cpu1.op_class::IntMult                       0      0.00%     43.48% # Class of executed instruction
system.cpu1.op_class::IntDiv                        0      0.00%     43.48% # Class of executed instruction
system.cpu1.op_class::FloatAdd                      0      0.00%     43.48% # Class of executed instruction
system.cpu1.op_class::FloatCmp                      0      0.00%     43.48% # Class of executed instruction
system.cpu1.op_class::FloatCvt                      0      0.00%     43.48% # Class of executed instruction
system.cpu1.op_class::FloatMult                     0      0.00%     43.48% # Class of executed instruction
system.cpu1.op_class::FloatMultAcc                  0      0.00%     43.48% # Class of executed instruction
system.cpu1.op_class::FloatDiv                      0      0.00%     43.48% # Class of executed instruction
system.cpu1.op_class::FloatMisc                     0      0.00%     43.48% # Class of executed instruction
system.cpu1.op_class::FloatSqrt                     0      0.00%     43.48% # Class of executed instruction
system.cpu1.op_class::SimdAdd                       0      0.00%     43.48% # Class of executed instruction
system.cpu1.op_class::SimdAddAcc                    0      0.00%     43.48% # Class of executed instruction
system.cpu1.op_class::SimdAlu                       0      0.00%     43.48% # Class of executed instruction
system.cpu1.op_class::SimdCmp                       0      0.00%     43.48% # Class of executed instruction
system.cpu1.op_class::SimdCvt                       0      0.00%     43.48% # Class of executed instruction
system.cpu1.op_class::SimdMisc                      0      0.00%     43.48% # Class of executed instruction
system.cpu1.op_class::SimdMult                      0      0.00%     43.48% # Class of executed instruction
system.cpu1.op_class::SimdMultAcc                   0      0.00%     43.48% # Class of executed instruction
system.cpu1.op_class::SimdShift                     0      0.00%     43.48% # Class of executed instruction
system.cpu1.op_class::SimdShiftAcc                  0      0.00%     43.48% # Class of executed instruction
system.cpu1.op_class::SimdDiv                       0      0.00%     43.48% # Class of executed instruction
system.cpu1.op_class::SimdSqrt                      0      0.00%     43.48% # Class of executed instruction
system.cpu1.op_class::SimdFloatAdd                  4     17.39%     60.87% # Class of executed instruction
system.cpu1.op_class::SimdFloatAlu                  0      0.00%     60.87% # Class of executed instruction
system.cpu1.op_class::SimdFloatCmp                  0      0.00%     60.87% # Class of executed instruction
system.cpu1.op_class::SimdFloatCvt                  0      0.00%     60.87% # Class of executed instruction
system.cpu1.op_class::SimdFloatDiv                  0      0.00%     60.87% # Class of executed instruction
system.cpu1.op_class::SimdFloatMisc                 0      0.00%     60.87% # Class of executed instruction
system.cpu1.op_class::SimdFloatMult                 2      8.70%     69.57% # Class of executed instruction
system.cpu1.op_class::SimdFloatMultAcc              0      0.00%     69.57% # Class of executed instruction
system.cpu1.op_class::SimdFloatSqrt                 0      0.00%     69.57% # Class of executed instruction
system.cpu1.op_class::SimdReduceAdd                 0      0.00%     69.57% # Class of executed instruction
system.cpu1.op_class::SimdReduceAlu                 0      0.00%     69.57% # Class of executed instruction
system.cpu1.op_class::SimdReduceCmp                 0      0.00%     69.57% # Class of executed instruction
system.cpu1.op_class::SimdFloatReduceAdd            0      0.00%     69.57% # Class of executed instruction
system.cpu1.op_class::SimdFloatReduceCmp            0      0.00%     69.57% # Class of executed instruction
system.cpu1.op_class::SimdAes                       0      0.00%     69.57% # Class of executed instruction
system.cpu1.op_class::SimdAesMix                    0      0.00%     69.57% # Class of executed instruction
system.cpu1.op_class::SimdSha1Hash                  0      0.00%     69.57% # Class of executed instruction
system.cpu1.op_class::SimdSha1Hash2                 0      0.00%     69.57% # Class of executed instruction
system.cpu1.op_class::SimdSha256Hash                0      0.00%     69.57% # Class of executed instruction
system.cpu1.op_class::SimdSha256Hash2               0      0.00%     69.57% # Class of executed instruction
system.cpu1.op_class::SimdShaSigma2                 0      0.00%     69.57% # Class of executed instruction
system.cpu1.op_class::SimdShaSigma3                 0      0.00%     69.57% # Class of executed instruction
system.cpu1.op_class::SimdPredAlu                   0      0.00%     69.57% # Class of executed instruction
system.cpu1.op_class::MemRead                       2      8.70%     78.26% # Class of executed instruction
system.cpu1.op_class::MemWrite                      0      0.00%     78.26% # Class of executed instruction
system.cpu1.op_class::FloatMemRead                  4     17.39%     95.65% # Class of executed instruction
system.cpu1.op_class::FloatMemWrite                 1      4.35%    100.00% # Class of executed instruction
system.cpu1.op_class::IprAccess                     0      0.00%    100.00% # Class of executed instruction
system.cpu1.op_class::InstPrefetch                  0      0.00%    100.00% # Class of executed instruction
system.cpu1.op_class::total                        23                       # Class of executed instruction
system.cpu1.workload.numSyscalls                    0                       # Number of system calls
system.cpu2.Branches                                1                       # Number of branches fetched
system.cpu2.committedInsts                         14                       # Number of instructions committed
system.cpu2.committedOps                           23                       # Number of ops (including micro ops) committed
system.cpu2.idle_fraction                           0                       # Percentage of idle cycles
system.cpu2.l2bus.snoop_filter.hit_multi_requests            2                       # Number of requests hitting in the snoop filter with multiple (>1) holders of the requested data.
system.cpu2.l2bus.snoop_filter.hit_multi_snoops            0                       # Number of snoops hitting in the snoop filter with multiple (>1) holders of the requested data.
system.cpu2.l2bus.snoop_filter.hit_single_requests      2573831                       # Number of requests hitting in the snoop filter with a single holder of the requested data.
system.cpu2.l2bus.snoop_filter.hit_single_snoops         5770                       # Number of snoops hitting in the snoop filter with a single holder of the requested data.
system.cpu2.l2bus.snoop_filter.tot_requests      5018296                       # Total number of requests made to the snoop filter.
system.cpu2.l2bus.snoop_filter.tot_snoops         5770                       # Total number of snoops made to the snoop filter.
system.cpu2.mmucache.mmubus.snoop_filter.hit_multi_requests            0                       # Number of requests hitting in the snoop filter with multiple (>1) holders of the requested data.
system.cpu2.mmucache.mmubus.snoop_filter.hit_multi_snoops            0                       # Number of snoops hitting in the snoop filter with multiple (>1) holders of the requested data.
system.cpu2.mmucache.mmubus.snoop_filter.hit_single_requests            0                       # Number of requests hitting in the snoop filter with a single holder of the requested data.
system.cpu2.mmucache.mmubus.snoop_filter.hit_single_snoops            0                       # Number of snoops hitting in the snoop filter with a single holder of the requested data.
system.cpu2.mmucache.mmubus.snoop_filter.tot_requests            0                       # Total number of requests made to the snoop filter.
system.cpu2.mmucache.mmubus.snoop_filter.tot_snoops            0                       # Total number of snoops made to the snoop filter.
system.cpu2.not_idle_fraction                       1                       # Percentage of non-idle cycles
system.cpu2.numCycles                              30                       # number of cpu cycles simulated
system.cpu2.numWorkItemsCompleted                   0                       # number of work items this cpu completed
system.cpu2.numWorkItemsStarted                     0                       # number of work items this cpu started
system.cpu2.num_busy_cycles                        30                       # Number of busy cycles
system.cpu2.num_cc_register_reads                   5                       # number of times the CC registers were read
system.cpu2.num_cc_register_writes                  8                       # number of times the CC registers were written
system.cpu2.num_conditional_control_insts            1                       # number of instructions that are conditional controls
system.cpu2.num_fp_alu_accesses                    12                       # Number of float alu accesses
system.cpu2.num_fp_insts                           12                       # number of float instructions
system.cpu2.num_fp_register_reads                  21                       # number of times the floating registers were read
system.cpu2.num_fp_register_writes                 11                       # number of times the floating registers were written
system.cpu2.num_func_calls                          0                       # number of times a function call or return occured
system.cpu2.num_idle_cycles                         0                       # Number of idle cycles
system.cpu2.num_int_alu_accesses                   16                       # Number of integer alu accesses
system.cpu2.num_int_insts                          16                       # number of integer instructions
system.cpu2.num_int_register_reads                 33                       # number of times the integer registers were read
system.cpu2.num_int_register_writes                10                       # number of times the integer registers were written
system.cpu2.num_load_insts                          6                       # Number of load instructions
system.cpu2.num_mem_refs                            7                       # number of memory refs
system.cpu2.num_store_insts                         1                       # Number of store instructions
system.cpu2.num_vec_alu_accesses                    0                       # Number of vector alu accesses
system.cpu2.num_vec_insts                           0                       # number of vector instructions
system.cpu2.num_vec_register_reads                  0                       # number of times the vector registers were read
system.cpu2.num_vec_register_writes                 0                       # number of times the vector registers were written
system.cpu2.op_class::No_OpClass                    0      0.00%      0.00% # Class of executed instruction
system.cpu2.op_class::IntAlu                       10     43.48%     43.48% # Class of executed instruction
system.cpu2.op_class::IntMult                       0      0.00%     43.48% # Class of executed instruction
system.cpu2.op_class::IntDiv                        0      0.00%     43.48% # Class of executed instruction
system.cpu2.op_class::FloatAdd                      0      0.00%     43.48% # Class of executed instruction
system.cpu2.op_class::FloatCmp                      0      0.00%     43.48% # Class of executed instruction
system.cpu2.op_class::FloatCvt                      0      0.00%     43.48% # Class of executed instruction
system.cpu2.op_class::FloatMult                     0      0.00%     43.48% # Class of executed instruction
system.cpu2.op_class::FloatMultAcc                  0      0.00%     43.48% # Class of executed instruction
system.cpu2.op_class::FloatDiv                      0      0.00%     43.48% # Class of executed instruction
system.cpu2.op_class::FloatMisc                     0      0.00%     43.48% # Class of executed instruction
system.cpu2.op_class::FloatSqrt                     0      0.00%     43.48% # Class of executed instruction
system.cpu2.op_class::SimdAdd                       0      0.00%     43.48% # Class of executed instruction
system.cpu2.op_class::SimdAddAcc                    0      0.00%     43.48% # Class of executed instruction
system.cpu2.op_class::SimdAlu                       0      0.00%     43.48% # Class of executed instruction
system.cpu2.op_class::SimdCmp                       0      0.00%     43.48% # Class of executed instruction
system.cpu2.op_class::SimdCvt                       0      0.00%     43.48% # Class of executed instruction
system.cpu2.op_class::SimdMisc                      0      0.00%     43.48% # Class of executed instruction
system.cpu2.op_class::SimdMult                      0      0.00%     43.48% # Class of executed instruction
system.cpu2.op_class::SimdMultAcc                   0      0.00%     43.48% # Class of executed instruction
system.cpu2.op_class::SimdShift                     0      0.00%     43.48% # Class of executed instruction
system.cpu2.op_class::SimdShiftAcc                  0      0.00%     43.48% # Class of executed instruction
system.cpu2.op_class::SimdDiv                       0      0.00%     43.48% # Class of executed instruction
system.cpu2.op_class::SimdSqrt                      0      0.00%     43.48% # Class of executed instruction
system.cpu2.op_class::SimdFloatAdd                  4     17.39%     60.87% # Class of executed instruction
system.cpu2.op_class::SimdFloatAlu                  0      0.00%     60.87% # Class of executed instruction
system.cpu2.op_class::SimdFloatCmp                  0      0.00%     60.87% # Class of executed instruction
system.cpu2.op_class::SimdFloatCvt                  0      0.00%     60.87% # Class of executed instruction
system.cpu2.op_class::SimdFloatDiv                  0      0.00%     60.87% # Class of executed instruction
system.cpu2.op_class::SimdFloatMisc                 0      0.00%     60.87% # Class of executed instruction
system.cpu2.op_class::SimdFloatMult                 2      8.70%     69.57% # Class of executed instruction
system.cpu2.op_class::SimdFloatMultAcc              0      0.00%     69.57% # Class of executed instruction
system.cpu2.op_class::SimdFloatSqrt                 0      0.00%     69.57% # Class of executed instruction
system.cpu2.op_class::SimdReduceAdd                 0      0.00%     69.57% # Class of executed instruction
system.cpu2.op_class::SimdReduceAlu                 0      0.00%     69.57% # Class of executed instruction
system.cpu2.op_class::SimdReduceCmp                 0      0.00%     69.57% # Class of executed instruction
system.cpu2.op_class::SimdFloatReduceAdd            0      0.00%     69.57% # Class of executed instruction
system.cpu2.op_class::SimdFloatReduceCmp            0      0.00%     69.57% # Class of executed instruction
system.cpu2.op_class::SimdAes                       0      0.00%     69.57% # Class of executed instruction
system.cpu2.op_class::SimdAesMix                    0      0.00%     69.57% # Class of executed instruction
system.cpu2.op_class::SimdSha1Hash                  0      0.00%     69.57% # Class of executed instruction
system.cpu2.op_class::SimdSha1Hash2                 0      0.00%     69.57% # Class of executed instruction
system.cpu2.op_class::SimdSha256Hash                0      0.00%     69.57% # Class of executed instruction
system.cpu2.op_class::SimdSha256Hash2               0      0.00%     69.57% # Class of executed instruction
system.cpu2.op_class::SimdShaSigma2                 0      0.00%     69.57% # Class of executed instruction
system.cpu2.op_class::SimdShaSigma3                 0      0.00%     69.57% # Class of executed instruction
system.cpu2.op_class::SimdPredAlu                   0      0.00%     69.57% # Class of executed instruction
system.cpu2.op_class::MemRead                       2      8.70%     78.26% # Class of executed instruction
system.cpu2.op_class::MemWrite                      0      0.00%     78.26% # Class of executed instruction
system.cpu2.op_class::FloatMemRead                  4     17.39%     95.65% # Class of executed instruction
system.cpu2.op_class::FloatMemWrite                 1      4.35%    100.00% # Class of executed instruction
system.cpu2.op_class::IprAccess                     0      0.00%    100.00% # Class of executed instruction
system.cpu2.op_class::InstPrefetch                  0      0.00%    100.00% # Class of executed instruction
system.cpu2.op_class::total                        23                       # Class of executed instruction
system.cpu2.workload.numSyscalls                    0                       # Number of system calls
system.cpu3.Branches                                1                       # Number of branches fetched
system.cpu3.committedInsts                         14                       # Number of instructions committed
system.cpu3.committedOps                           23                       # Number of ops (including micro ops) committed
system.cpu3.idle_fraction                           0                       # Percentage of idle cycles
system.cpu3.l2bus.snoop_filter.hit_multi_requests            2                       # Number of requests hitting in the snoop filter with multiple (>1) holders of the requested data.
system.cpu3.l2bus.snoop_filter.hit_multi_snoops            0                       # Number of snoops hitting in the snoop filter with multiple (>1) holders of the requested data.
system.cpu3.l2bus.snoop_filter.hit_single_requests      2573768                       # Number of requests hitting in the snoop filter with a single holder of the requested data.
system.cpu3.l2bus.snoop_filter.hit_single_snoops         5764                       # Number of snoops hitting in the snoop filter with a single holder of the requested data.
system.cpu3.l2bus.snoop_filter.tot_requests      5018206                       # Total number of requests made to the snoop filter.
system.cpu3.l2bus.snoop_filter.tot_snoops         5764                       # Total number of snoops made to the snoop filter.
system.cpu3.mmucache.mmubus.snoop_filter.hit_multi_requests            0                       # Number of requests hitting in the snoop filter with multiple (>1) holders of the requested data.
system.cpu3.mmucache.mmubus.snoop_filter.hit_multi_snoops            0                       # Number of snoops hitting in the snoop filter with multiple (>1) holders of the requested data.
system.cpu3.mmucache.mmubus.snoop_filter.hit_single_requests            0                       # Number of requests hitting in the snoop filter with a single holder of the requested data.
system.cpu3.mmucache.mmubus.snoop_filter.hit_single_snoops            0                       # Number of snoops hitting in the snoop filter with a single holder of the requested data.
system.cpu3.mmucache.mmubus.snoop_filter.tot_requests            0                       # Total number of requests made to the snoop filter.
system.cpu3.mmucache.mmubus.snoop_filter.tot_snoops            0                       # Total number of snoops made to the snoop filter.
system.cpu3.not_idle_fraction                       1                       # Percentage of non-idle cycles
system.cpu3.numCycles                              30                       # number of cpu cycles simulated
system.cpu3.numWorkItemsCompleted                   0                       # number of work items this cpu completed
system.cpu3.numWorkItemsStarted                     0                       # number of work items this cpu started
system.cpu3.num_busy_cycles                        30                       # Number of busy cycles
system.cpu3.num_cc_register_reads                   5                       # number of times the CC registers were read
system.cpu3.num_cc_register_writes                  8                       # number of times the CC registers were written
system.cpu3.num_conditional_control_insts            1                       # number of instructions that are conditional controls
system.cpu3.num_fp_alu_accesses                    12                       # Number of float alu accesses
system.cpu3.num_fp_insts                           12                       # number of float instructions
system.cpu3.num_fp_register_reads                  21                       # number of times the floating registers were read
system.cpu3.num_fp_register_writes                 11                       # number of times the floating registers were written
system.cpu3.num_func_calls                          0                       # number of times a function call or return occured
system.cpu3.num_idle_cycles                         0                       # Number of idle cycles
system.cpu3.num_int_alu_accesses                   16                       # Number of integer alu accesses
system.cpu3.num_int_insts                          16                       # number of integer instructions
system.cpu3.num_int_register_reads                 33                       # number of times the integer registers were read
system.cpu3.num_int_register_writes                10                       # number of times the integer registers were written
system.cpu3.num_load_insts                          6                       # Number of load instructions
system.cpu3.num_mem_refs                            7                       # number of memory refs
system.cpu3.num_store_insts                         1                       # Number of store instructions
system.cpu3.num_vec_alu_accesses                    0                       # Number of vector alu accesses
system.cpu3.num_vec_insts                           0                       # number of vector instructions
system.cpu3.num_vec_register_reads                  0                       # number of times the vector registers were read
system.cpu3.num_vec_register_writes                 0                       # number of times the vector registers were written
system.cpu3.op_class::No_OpClass                    0      0.00%      0.00% # Class of executed instruction
system.cpu3.op_class::IntAlu                       10     43.48%     43.48% # Class of executed instruction
system.cpu3.op_class::IntMult                       0      0.00%     43.48% # Class of executed instruction
system.cpu3.op_class::IntDiv                        0      0.00%     43.48% # Class of executed instruction
system.cpu3.op_class::FloatAdd                      0      0.00%     43.48% # Class of executed instruction
system.cpu3.op_class::FloatCmp                      0      0.00%     43.48% # Class of executed instruction
system.cpu3.op_class::FloatCvt                      0      0.00%     43.48% # Class of executed instruction
system.cpu3.op_class::FloatMult                     0      0.00%     43.48% # Class of executed instruction
system.cpu3.op_class::FloatMultAcc                  0      0.00%     43.48% # Class of executed instruction
system.cpu3.op_class::FloatDiv                      0      0.00%     43.48% # Class of executed instruction
system.cpu3.op_class::FloatMisc                     0      0.00%     43.48% # Class of executed instruction
system.cpu3.op_class::FloatSqrt                     0      0.00%     43.48% # Class of executed instruction
system.cpu3.op_class::SimdAdd                       0      0.00%     43.48% # Class of executed instruction
system.cpu3.op_class::SimdAddAcc                    0      0.00%     43.48% # Class of executed instruction
system.cpu3.op_class::SimdAlu                       0      0.00%     43.48% # Class of executed instruction
system.cpu3.op_class::SimdCmp                       0      0.00%     43.48% # Class of executed instruction
system.cpu3.op_class::SimdCvt                       0      0.00%     43.48% # Class of executed instruction
system.cpu3.op_class::SimdMisc                      0      0.00%     43.48% # Class of executed instruction
system.cpu3.op_class::SimdMult                      0      0.00%     43.48% # Class of executed instruction
system.cpu3.op_class::SimdMultAcc                   0      0.00%     43.48% # Class of executed instruction
system.cpu3.op_class::SimdShift                     0      0.00%     43.48% # Class of executed instruction
system.cpu3.op_class::SimdShiftAcc                  0      0.00%     43.48% # Class of executed instruction
system.cpu3.op_class::SimdDiv                       0      0.00%     43.48% # Class of executed instruction
system.cpu3.op_class::SimdSqrt                      0      0.00%     43.48% # Class of executed instruction
system.cpu3.op_class::SimdFloatAdd                  4     17.39%     60.87% # Class of executed instruction
system.cpu3.op_class::SimdFloatAlu                  0      0.00%     60.87% # Class of executed instruction
system.cpu3.op_class::SimdFloatCmp                  0      0.00%     60.87% # Class of executed instruction
system.cpu3.op_class::SimdFloatCvt                  0      0.00%     60.87% # Class of executed instruction
system.cpu3.op_class::SimdFloatDiv                  0      0.00%     60.87% # Class of executed instruction
system.cpu3.op_class::SimdFloatMisc                 0      0.00%     60.87% # Class of executed instruction
system.cpu3.op_class::SimdFloatMult                 2      8.70%     69.57% # Class of executed instruction
system.cpu3.op_class::SimdFloatMultAcc              0      0.00%     69.57% # Class of executed instruction
system.cpu3.op_class::SimdFloatSqrt                 0      0.00%     69.57% # Class of executed instruction
system.cpu3.op_class::SimdReduceAdd                 0      0.00%     69.57% # Class of executed instruction
system.cpu3.op_class::SimdReduceAlu                 0      0.00%     69.57% # Class of executed instruction
system.cpu3.op_class::SimdReduceCmp                 0      0.00%     69.57% # Class of executed instruction
system.cpu3.op_class::SimdFloatReduceAdd            0      0.00%     69.57% # Class of executed instruction
system.cpu3.op_class::SimdFloatReduceCmp            0      0.00%     69.57% # Class of executed instruction
system.cpu3.op_class::SimdAes                       0      0.00%     69.57% # Class of executed instruction
system.cpu3.op_class::SimdAesMix                    0      0.00%     69.57% # Class of executed instruction
system.cpu3.op_class::SimdSha1Hash                  0      0.00%     69.57% # Class of executed instruction
system.cpu3.op_class::SimdSha1Hash2                 0      0.00%     69.57% # Class of executed instruction
system.cpu3.op_class::SimdSha256Hash                0      0.00%     69.57% # Class of executed instruction
system.cpu3.op_class::SimdSha256Hash2               0      0.00%     69.57% # Class of executed instruction
system.cpu3.op_class::SimdShaSigma2                 0      0.00%     69.57% # Class of executed instruction
system.cpu3.op_class::SimdShaSigma3                 0      0.00%     69.57% # Class of executed instruction
system.cpu3.op_class::SimdPredAlu                   0      0.00%     69.57% # Class of executed instruction
system.cpu3.op_class::MemRead                       2      8.70%     78.26% # Class of executed instruction
system.cpu3.op_class::MemWrite                      0      0.00%     78.26% # Class of executed instruction
system.cpu3.op_class::FloatMemRead                  4     17.39%     95.65% # Class of executed instruction
system.cpu3.op_class::FloatMemWrite                 1      4.35%    100.00% # Class of executed instruction
system.cpu3.op_class::IprAccess                     0      0.00%    100.00% # Class of executed instruction
system.cpu3.op_class::InstPrefetch                  0      0.00%    100.00% # Class of executed instruction
system.cpu3.op_class::total                        23                       # Class of executed instruction
system.cpu3.workload.numSyscalls                    0                       # Number of system calls
system.l3bus.snoop_filter.hit_multi_requests            0                       # Number of requests hitting in the snoop filter with multiple (>1) holders of the requested data.
system.l3bus.snoop_filter.hit_multi_snoops            0                       # Number of snoops hitting in the snoop filter with multiple (>1) holders of the requested data.
system.l3bus.snoop_filter.hit_single_requests      7477756                       # Number of requests hitting in the snoop filter with a single holder of the requested data.
system.l3bus.snoop_filter.hit_single_snoops            6                       # Number of snoops hitting in the snoop filter with a single holder of the requested data.
system.l3bus.snoop_filter.tot_requests       15023916                       # Total number of requests made to the snoop filter.
system.l3bus.snoop_filter.tot_snoops                6                       # Total number of snoops made to the snoop filter.
system.membus.snoop_filter.hit_multi_requests            0                       # Number of requests hitting in the snoop filter with multiple (>1) holders of the requested data.
system.membus.snoop_filter.hit_multi_snoops            0                       # Number of snoops hitting in the snoop filter with multiple (>1) holders of the requested data.
system.membus.snoop_filter.hit_single_requests      4723200                       # Number of requests hitting in the snoop filter with a single holder of the requested data.
system.membus.snoop_filter.hit_single_snoops            0                       # Number of snoops hitting in the snoop filter with a single holder of the requested data.
system.membus.snoop_filter.tot_requests       9517893                       # Total number of requests made to the snoop filter.
system.membus.snoop_filter.tot_snoops               0                       # Total number of snoops made to the snoop filter.
system.switch_cpus0.cc_regfile_reads        130715064                       # number of cc regfile reads
system.switch_cpus0.cc_regfile_writes        97931083                       # number of cc regfile writes
system.switch_cpus0.committedInsts          250000000                       # Number of Instructions Simulated
system.switch_cpus0.committedOps            412717679                       # Number of Ops (including micro ops) Simulated
system.switch_cpus0.cpi                      1.092090                       # CPI: Cycles Per Instruction
system.switch_cpus0.cpi_total                1.092090                       # CPI: Total CPI of All Threads
system.switch_cpus0.fp_regfile_reads        302026990                       # number of floating regfile reads
system.switch_cpus0.fp_regfile_writes       159570792                       # number of floating regfile writes
system.switch_cpus0.idleCycles                 100319                       # Total number of cycles that the CPU has spent unscheduled due to idling
system.switch_cpus0.iew.branchMispredicts        18998                       # Number of branch mispredicts detected at execute
system.switch_cpus0.iew.exec_branches        28475663                       # Number of branches executed
system.switch_cpus0.iew.exec_nop                    0                       # number of nop insts executed
system.switch_cpus0.iew.exec_rate            1.513135                       # Inst execution rate
system.switch_cpus0.iew.exec_refs            96922192                       # number of memory reference insts executed
system.switch_cpus0.iew.exec_stores          27538744                       # Number of stores executed
system.switch_cpus0.iew.exec_swp                    0                       # number of swp insts executed
system.switch_cpus0.iew.iewBlockCycles       54520981                       # Number of cycles IEW is blocking
system.switch_cpus0.iew.iewDispLoadInsts     69427889                       # Number of dispatched load instructions
system.switch_cpus0.iew.iewDispNonSpecInsts            3                       # Number of dispatched non-speculative instructions
system.switch_cpus0.iew.iewDispSquashedInsts          514                       # Number of squashed instructions skipped by dispatch
system.switch_cpus0.iew.iewDispStoreInsts     27595252                       # Number of dispatched store instructions
system.switch_cpus0.iew.iewDispatchedInsts    413427902                       # Number of instructions dispatched to IQ
system.switch_cpus0.iew.iewExecLoadInsts     69383448                       # Number of load instructions executed
system.switch_cpus0.iew.iewExecSquashedInsts        56370                       # Number of squashed instructions skipped in execute
system.switch_cpus0.iew.iewExecutedInsts    413119819                       # Number of executed instructions
system.switch_cpus0.iew.iewIQFullEvents        148615                       # Number of times the IQ has become full, causing a stall
system.switch_cpus0.iew.iewIdleCycles               0                       # Number of cycles IEW is idle
system.switch_cpus0.iew.iewLSQFullEvents     23677844                       # Number of times the LSQ has become full, causing a stall
system.switch_cpus0.iew.iewSquashCycles         20792                       # Number of cycles IEW is squashing
system.switch_cpus0.iew.iewUnblockCycles     23944569                       # Number of cycles IEW is unblocking
system.switch_cpus0.iew.memOrderViolationEvents         2266                       # Number of memory order violations
system.switch_cpus0.iew.predictedNotTakenIncorrect         6322                       # Number of branches that were predicted not taken incorrectly
system.switch_cpus0.iew.predictedTakenIncorrect        12676                       # Number of branches that were predicted taken incorrectly
system.switch_cpus0.iew.wb_consumers        507992844                       # num instructions consuming a value
system.switch_cpus0.iew.wb_count            413076728                       # cumulative count of insts written-back
system.switch_cpus0.iew.wb_fanout            0.602636                       # average fanout of values written-back
system.switch_cpus0.iew.wb_producers        306134655                       # num instructions producing a value
system.switch_cpus0.iew.wb_rate              1.512977                       # insts written-back per cycle
system.switch_cpus0.iew.wb_sent             413095881                       # cumulative count of insts sent to commit
system.switch_cpus0.int_regfile_reads       405481993                       # number of integer regfile reads
system.switch_cpus0.int_regfile_writes      190915355                       # number of integer regfile writes
system.switch_cpus0.ipc                      0.915676                       # IPC: Instructions Per Cycle
system.switch_cpus0.ipc_total                0.915676                       # IPC: Total IPC of All Threads
system.switch_cpus0.iq.FU_type_0::No_OpClass        11939      0.00%      0.00% # Type of FU issued
system.switch_cpus0.iq.FU_type_0::IntAlu    221793653     53.68%     53.68% # Type of FU issued
system.switch_cpus0.iq.FU_type_0::IntMult        17893      0.00%     53.69% # Type of FU issued
system.switch_cpus0.iq.FU_type_0::IntDiv            0      0.00%     53.69% # Type of FU issued
system.switch_cpus0.iq.FU_type_0::FloatAdd     12497639      3.02%     56.71% # Type of FU issued
system.switch_cpus0.iq.FU_type_0::FloatCmp            0      0.00%     56.71% # Type of FU issued
system.switch_cpus0.iq.FU_type_0::FloatCvt            0      0.00%     56.71% # Type of FU issued
system.switch_cpus0.iq.FU_type_0::FloatMult            0      0.00%     56.71% # Type of FU issued
system.switch_cpus0.iq.FU_type_0::FloatMultAcc            0      0.00%     56.71% # Type of FU issued
system.switch_cpus0.iq.FU_type_0::FloatDiv            0      0.00%     56.71% # Type of FU issued
system.switch_cpus0.iq.FU_type_0::FloatMisc            0      0.00%     56.71% # Type of FU issued
system.switch_cpus0.iq.FU_type_0::FloatSqrt            0      0.00%     56.71% # Type of FU issued
system.switch_cpus0.iq.FU_type_0::SimdAdd            0      0.00%     56.71% # Type of FU issued
system.switch_cpus0.iq.FU_type_0::SimdAddAcc            0      0.00%     56.71% # Type of FU issued
system.switch_cpus0.iq.FU_type_0::SimdAlu      8957183      2.17%     58.88% # Type of FU issued
system.switch_cpus0.iq.FU_type_0::SimdCmp            0      0.00%     58.88% # Type of FU issued
system.switch_cpus0.iq.FU_type_0::SimdCvt            0      0.00%     58.88% # Type of FU issued
system.switch_cpus0.iq.FU_type_0::SimdMisc      5331536      1.29%     60.17% # Type of FU issued
system.switch_cpus0.iq.FU_type_0::SimdMult            0      0.00%     60.17% # Type of FU issued
system.switch_cpus0.iq.FU_type_0::SimdMultAcc            0      0.00%     60.17% # Type of FU issued
system.switch_cpus0.iq.FU_type_0::SimdShift            0      0.00%     60.17% # Type of FU issued
system.switch_cpus0.iq.FU_type_0::SimdShiftAcc            0      0.00%     60.17% # Type of FU issued
system.switch_cpus0.iq.FU_type_0::SimdDiv            0      0.00%     60.17% # Type of FU issued
system.switch_cpus0.iq.FU_type_0::SimdSqrt            0      0.00%     60.17% # Type of FU issued
system.switch_cpus0.iq.FU_type_0::SimdFloatAdd     30064156      7.28%     67.45% # Type of FU issued
system.switch_cpus0.iq.FU_type_0::SimdFloatAlu            0      0.00%     67.45% # Type of FU issued
system.switch_cpus0.iq.FU_type_0::SimdFloatCmp       376832      0.09%     67.54% # Type of FU issued
system.switch_cpus0.iq.FU_type_0::SimdFloatCvt      6594146      1.60%     69.13% # Type of FU issued
system.switch_cpus0.iq.FU_type_0::SimdFloatDiv      3034038      0.73%     69.87% # Type of FU issued
system.switch_cpus0.iq.FU_type_0::SimdFloatMisc            0      0.00%     69.87% # Type of FU issued
system.switch_cpus0.iq.FU_type_0::SimdFloatMult     27037056      6.54%     76.41% # Type of FU issued
system.switch_cpus0.iq.FU_type_0::SimdFloatMultAcc            0      0.00%     76.41% # Type of FU issued
system.switch_cpus0.iq.FU_type_0::SimdFloatSqrt       506044      0.12%     76.53% # Type of FU issued
system.switch_cpus0.iq.FU_type_0::SimdReduceAdd            0      0.00%     76.53% # Type of FU issued
system.switch_cpus0.iq.FU_type_0::SimdReduceAlu            0      0.00%     76.53% # Type of FU issued
system.switch_cpus0.iq.FU_type_0::SimdReduceCmp            0      0.00%     76.53% # Type of FU issued
system.switch_cpus0.iq.FU_type_0::SimdFloatReduceAdd            0      0.00%     76.53% # Type of FU issued
system.switch_cpus0.iq.FU_type_0::SimdFloatReduceCmp            0      0.00%     76.53% # Type of FU issued
system.switch_cpus0.iq.FU_type_0::SimdAes            0      0.00%     76.53% # Type of FU issued
system.switch_cpus0.iq.FU_type_0::SimdAesMix            0      0.00%     76.53% # Type of FU issued
system.switch_cpus0.iq.FU_type_0::SimdSha1Hash            0      0.00%     76.53% # Type of FU issued
system.switch_cpus0.iq.FU_type_0::SimdSha1Hash2            0      0.00%     76.53% # Type of FU issued
system.switch_cpus0.iq.FU_type_0::SimdSha256Hash            0      0.00%     76.53% # Type of FU issued
system.switch_cpus0.iq.FU_type_0::SimdSha256Hash2            0      0.00%     76.53% # Type of FU issued
system.switch_cpus0.iq.FU_type_0::SimdShaSigma2            0      0.00%     76.53% # Type of FU issued
system.switch_cpus0.iq.FU_type_0::SimdShaSigma3            0      0.00%     76.53% # Type of FU issued
system.switch_cpus0.iq.FU_type_0::SimdPredAlu            0      0.00%     76.53% # Type of FU issued
system.switch_cpus0.iq.FU_type_0::MemRead     26779281      6.48%     83.02% # Type of FU issued
system.switch_cpus0.iq.FU_type_0::MemWrite     13501370      3.27%     86.28% # Type of FU issued
system.switch_cpus0.iq.FU_type_0::FloatMemRead     42622686     10.32%     96.60% # Type of FU issued
system.switch_cpus0.iq.FU_type_0::FloatMemWrite     14050740      3.40%    100.00% # Type of FU issued
system.switch_cpus0.iq.FU_type_0::IprAccess            0      0.00%    100.00% # Type of FU issued
system.switch_cpus0.iq.FU_type_0::InstPrefetch            0      0.00%    100.00% # Type of FU issued
system.switch_cpus0.iq.FU_type_0::total     413176192                       # Type of FU issued
system.switch_cpus0.iq.fp_alu_accesses      187494538                       # Number of floating point alu accesses
system.switch_cpus0.iq.fp_inst_queue_reads    373076055                       # Number of floating instruction queue reads
system.switch_cpus0.iq.fp_inst_queue_wakeup_accesses    185533237                       # Number of floating instruction queue wakeup accesses
system.switch_cpus0.iq.fp_inst_queue_writes    185989262                       # Number of floating instruction queue writes
system.switch_cpus0.iq.fu_busy_cnt            6579660                       # FU busy when requested
system.switch_cpus0.iq.fu_busy_rate          0.015925                       # FU busy rate (busy events/executed inst)
system.switch_cpus0.iq.fu_full::No_OpClass            0      0.00%      0.00% # attempts to use FU when none available
system.switch_cpus0.iq.fu_full::IntAlu        2874163     43.68%     43.68% # attempts to use FU when none available
system.switch_cpus0.iq.fu_full::IntMult             0      0.00%     43.68% # attempts to use FU when none available
system.switch_cpus0.iq.fu_full::IntDiv              0      0.00%     43.68% # attempts to use FU when none available
system.switch_cpus0.iq.fu_full::FloatAdd          484      0.01%     43.69% # attempts to use FU when none available
system.switch_cpus0.iq.fu_full::FloatCmp            0      0.00%     43.69% # attempts to use FU when none available
system.switch_cpus0.iq.fu_full::FloatCvt            0      0.00%     43.69% # attempts to use FU when none available
system.switch_cpus0.iq.fu_full::FloatMult            0      0.00%     43.69% # attempts to use FU when none available
system.switch_cpus0.iq.fu_full::FloatMultAcc            0      0.00%     43.69% # attempts to use FU when none available
system.switch_cpus0.iq.fu_full::FloatDiv            0      0.00%     43.69% # attempts to use FU when none available
system.switch_cpus0.iq.fu_full::FloatMisc            0      0.00%     43.69% # attempts to use FU when none available
system.switch_cpus0.iq.fu_full::FloatSqrt            0      0.00%     43.69% # attempts to use FU when none available
system.switch_cpus0.iq.fu_full::SimdAdd             0      0.00%     43.69% # attempts to use FU when none available
system.switch_cpus0.iq.fu_full::SimdAddAcc            0      0.00%     43.69% # attempts to use FU when none available
system.switch_cpus0.iq.fu_full::SimdAlu        118303      1.80%     45.49% # attempts to use FU when none available
system.switch_cpus0.iq.fu_full::SimdCmp             0      0.00%     45.49% # attempts to use FU when none available
system.switch_cpus0.iq.fu_full::SimdCvt             0      0.00%     45.49% # attempts to use FU when none available
system.switch_cpus0.iq.fu_full::SimdMisc            0      0.00%     45.49% # attempts to use FU when none available
system.switch_cpus0.iq.fu_full::SimdMult            0      0.00%     45.49% # attempts to use FU when none available
system.switch_cpus0.iq.fu_full::SimdMultAcc            0      0.00%     45.49% # attempts to use FU when none available
system.switch_cpus0.iq.fu_full::SimdShift            0      0.00%     45.49% # attempts to use FU when none available
system.switch_cpus0.iq.fu_full::SimdShiftAcc            0      0.00%     45.49% # attempts to use FU when none available
system.switch_cpus0.iq.fu_full::SimdDiv             0      0.00%     45.49% # attempts to use FU when none available
system.switch_cpus0.iq.fu_full::SimdSqrt            0      0.00%     45.49% # attempts to use FU when none available
system.switch_cpus0.iq.fu_full::SimdFloatAdd       162547      2.47%     47.96% # attempts to use FU when none available
system.switch_cpus0.iq.fu_full::SimdFloatAlu            0      0.00%     47.96% # attempts to use FU when none available
system.switch_cpus0.iq.fu_full::SimdFloatCmp            0      0.00%     47.96% # attempts to use FU when none available
system.switch_cpus0.iq.fu_full::SimdFloatCvt          497      0.01%     47.97% # attempts to use FU when none available
system.switch_cpus0.iq.fu_full::SimdFloatDiv        19508      0.30%     48.26% # attempts to use FU when none available
system.switch_cpus0.iq.fu_full::SimdFloatMisc            0      0.00%     48.26% # attempts to use FU when none available
system.switch_cpus0.iq.fu_full::SimdFloatMult       237264      3.61%     51.87% # attempts to use FU when none available
system.switch_cpus0.iq.fu_full::SimdFloatMultAcc            0      0.00%     51.87% # attempts to use FU when none available
system.switch_cpus0.iq.fu_full::SimdFloatSqrt          704      0.01%     51.88% # attempts to use FU when none available
system.switch_cpus0.iq.fu_full::SimdReduceAdd            0      0.00%     51.88% # attempts to use FU when none available
system.switch_cpus0.iq.fu_full::SimdReduceAlu            0      0.00%     51.88% # attempts to use FU when none available
system.switch_cpus0.iq.fu_full::SimdReduceCmp            0      0.00%     51.88% # attempts to use FU when none available
system.switch_cpus0.iq.fu_full::SimdFloatReduceAdd            0      0.00%     51.88% # attempts to use FU when none available
system.switch_cpus0.iq.fu_full::SimdFloatReduceCmp            0      0.00%     51.88% # attempts to use FU when none available
system.switch_cpus0.iq.fu_full::SimdAes             0      0.00%     51.88% # attempts to use FU when none available
system.switch_cpus0.iq.fu_full::SimdAesMix            0      0.00%     51.88% # attempts to use FU when none available
system.switch_cpus0.iq.fu_full::SimdSha1Hash            0      0.00%     51.88% # attempts to use FU when none available
system.switch_cpus0.iq.fu_full::SimdSha1Hash2            0      0.00%     51.88% # attempts to use FU when none available
system.switch_cpus0.iq.fu_full::SimdSha256Hash            0      0.00%     51.88% # attempts to use FU when none available
system.switch_cpus0.iq.fu_full::SimdSha256Hash2            0      0.00%     51.88% # attempts to use FU when none available
system.switch_cpus0.iq.fu_full::SimdShaSigma2            0      0.00%     51.88% # attempts to use FU when none available
system.switch_cpus0.iq.fu_full::SimdShaSigma3            0      0.00%     51.88% # attempts to use FU when none available
system.switch_cpus0.iq.fu_full::SimdPredAlu            0      0.00%     51.88% # attempts to use FU when none available
system.switch_cpus0.iq.fu_full::MemRead       1293842     19.66%     71.54% # attempts to use FU when none available
system.switch_cpus0.iq.fu_full::MemWrite       547144      8.32%     79.86% # attempts to use FU when none available
system.switch_cpus0.iq.fu_full::FloatMemRead      1032731     15.70%     95.55% # attempts to use FU when none available
system.switch_cpus0.iq.fu_full::FloatMemWrite       292473      4.45%    100.00% # attempts to use FU when none available
system.switch_cpus0.iq.fu_full::IprAccess            0      0.00%    100.00% # attempts to use FU when none available
system.switch_cpus0.iq.fu_full::InstPrefetch            0      0.00%    100.00% # attempts to use FU when none available
system.switch_cpus0.iq.int_alu_accesses     232249375                       # Number of integer alu accesses
system.switch_cpus0.iq.int_inst_queue_reads    732793316                       # Number of integer instruction queue reads
system.switch_cpus0.iq.int_inst_queue_wakeup_accesses    227543491                       # Number of integer instruction queue wakeup accesses
system.switch_cpus0.iq.int_inst_queue_writes    228151026                       # Number of integer instruction queue writes
system.switch_cpus0.iq.iqInstsAdded         413427893                       # Number of instructions added to the IQ (excludes non-spec)
system.switch_cpus0.iq.iqInstsIssued        413176192                       # Number of instructions issued
system.switch_cpus0.iq.iqNonSpecInstsAdded            9                       # Number of non-speculative instructions added to the IQ
system.switch_cpus0.iq.iqSquashedInstsExamined       710143                       # Number of squashed instructions iterated over during squash; mainly for profiling
system.switch_cpus0.iq.iqSquashedInstsIssued        15202                       # Number of squashed instructions issued
system.switch_cpus0.iq.iqSquashedNonSpecRemoved            9                       # Number of squashed non-spec instructions that were removed
system.switch_cpus0.iq.iqSquashedOperandsExamined      1107438                       # Number of squashed operands that are examined and possibly removed from graph
system.switch_cpus0.iq.issued_per_cycle::samples    272922128                       # Number of insts issued each cycle
system.switch_cpus0.iq.issued_per_cycle::mean     1.513898                       # Number of insts issued each cycle
system.switch_cpus0.iq.issued_per_cycle::stdev     2.674915                       # Number of insts issued each cycle
system.switch_cpus0.iq.issued_per_cycle::underflows            0      0.00%      0.00% # Number of insts issued each cycle
system.switch_cpus0.iq.issued_per_cycle::0    194730477     71.35%     71.35% # Number of insts issued each cycle
system.switch_cpus0.iq.issued_per_cycle::1      5950373      2.18%     73.53% # Number of insts issued each cycle
system.switch_cpus0.iq.issued_per_cycle::2      6021289      2.21%     75.74% # Number of insts issued each cycle
system.switch_cpus0.iq.issued_per_cycle::3      6450768      2.36%     78.10% # Number of insts issued each cycle
system.switch_cpus0.iq.issued_per_cycle::4      9589669      3.51%     81.61% # Number of insts issued each cycle
system.switch_cpus0.iq.issued_per_cycle::5     10786956      3.95%     85.57% # Number of insts issued each cycle
system.switch_cpus0.iq.issued_per_cycle::6     10016090      3.67%     89.24% # Number of insts issued each cycle
system.switch_cpus0.iq.issued_per_cycle::7     11571107      4.24%     93.48% # Number of insts issued each cycle
system.switch_cpus0.iq.issued_per_cycle::8     17805399      6.52%    100.00% # Number of insts issued each cycle
system.switch_cpus0.iq.issued_per_cycle::overflows            0      0.00%    100.00% # Number of insts issued each cycle
system.switch_cpus0.iq.issued_per_cycle::min_value            0                       # Number of insts issued each cycle
system.switch_cpus0.iq.issued_per_cycle::max_value            8                       # Number of insts issued each cycle
system.switch_cpus0.iq.issued_per_cycle::total    272922128                       # Number of insts issued each cycle
system.switch_cpus0.iq.rate                  1.513341                       # Inst issue rate
system.switch_cpus0.iq.vec_alu_accesses             0                       # Number of vector alu accesses
system.switch_cpus0.iq.vec_inst_queue_reads            0                       # Number of vector instruction queue reads
system.switch_cpus0.iq.vec_inst_queue_wakeup_accesses            0                       # Number of vector instruction queue wakeup accesses
system.switch_cpus0.iq.vec_inst_queue_writes            0                       # Number of vector instruction queue writes
system.switch_cpus0.memDep0.conflictingLoads      1680884                       # Number of conflicting loads.
system.switch_cpus0.memDep0.conflictingStores      1401755                       # Number of conflicting stores.
system.switch_cpus0.memDep0.insertedLoads     69427889                       # Number of loads inserted to the mem dependence unit.
system.switch_cpus0.memDep0.insertedStores     27595252                       # Number of stores inserted to the mem dependence unit.
system.switch_cpus0.misc_regfile_reads      170970248                       # number of misc regfile reads
system.switch_cpus0.misc_regfile_writes             1                       # number of misc regfile writes
system.switch_cpus0.numCycles               273022447                       # number of cpu cycles simulated
system.switch_cpus0.numWorkItemsCompleted            0                       # number of work items this cpu completed
system.switch_cpus0.numWorkItemsStarted             0                       # number of work items this cpu started
system.switch_cpus0.timesIdled                    371                       # Number of times that the entire CPU went into an idle state and unscheduled itself
system.switch_cpus1.cc_regfile_reads        130693488                       # number of cc regfile reads
system.switch_cpus1.cc_regfile_writes        97917994                       # number of cc regfile writes
system.switch_cpus1.committedInsts          249959562                       # Number of Instructions Simulated
system.switch_cpus1.committedOps            412650185                       # Number of Ops (including micro ops) Simulated
system.switch_cpus1.cpi                      1.092266                       # CPI: Cycles Per Instruction
system.switch_cpus1.cpi_total                1.092266                       # CPI: Total CPI of All Threads
system.switch_cpus1.fp_regfile_reads        301977207                       # number of floating regfile reads
system.switch_cpus1.fp_regfile_writes       159543331                       # number of floating regfile writes
system.switch_cpus1.idleCycles                  93521                       # Total number of cycles that the CPU has spent unscheduled due to idling
system.switch_cpus1.iew.branchMispredicts        18994                       # Number of branch mispredicts detected at execute
system.switch_cpus1.iew.exec_branches        28471334                       # Number of branches executed
system.switch_cpus1.iew.exec_nop                    0                       # number of nop insts executed
system.switch_cpus1.iew.exec_rate            1.512888                       # Inst execution rate
system.switch_cpus1.iew.exec_refs            96905035                       # number of memory reference insts executed
system.switch_cpus1.iew.exec_stores          27534087                       # Number of stores executed
system.switch_cpus1.iew.exec_swp                    0                       # number of swp insts executed
system.switch_cpus1.iew.iewBlockCycles       54490217                       # Number of cycles IEW is blocking
system.switch_cpus1.iew.iewDispLoadInsts     69415315                       # Number of dispatched load instructions
system.switch_cpus1.iew.iewDispNonSpecInsts            3                       # Number of dispatched non-speculative instructions
system.switch_cpus1.iew.iewDispSquashedInsts          527                       # Number of squashed instructions skipped by dispatch
system.switch_cpus1.iew.iewDispStoreInsts     27590559                       # Number of dispatched store instructions
system.switch_cpus1.iew.iewDispatchedInsts    413359934                       # Number of instructions dispatched to IQ
system.switch_cpus1.iew.iewExecLoadInsts     69370948                       # Number of load instructions executed
system.switch_cpus1.iew.iewExecSquashedInsts        56253                       # Number of squashed instructions skipped in execute
system.switch_cpus1.iew.iewExecutedInsts    413052319                       # Number of executed instructions
system.switch_cpus1.iew.iewIQFullEvents        149587                       # Number of times the IQ has become full, causing a stall
system.switch_cpus1.iew.iewIdleCycles               0                       # Number of cycles IEW is idle
system.switch_cpus1.iew.iewLSQFullEvents     23802535                       # Number of times the LSQ has become full, causing a stall
system.switch_cpus1.iew.iewSquashCycles         20804                       # Number of cycles IEW is squashing
system.switch_cpus1.iew.iewUnblockCycles     24069123                       # Number of cycles IEW is unblocking
system.switch_cpus1.iew.memOrderViolationEvents         2266                       # Number of memory order violations
system.switch_cpus1.iew.predictedNotTakenIncorrect         6319                       # Number of branches that were predicted not taken incorrectly
system.switch_cpus1.iew.predictedTakenIncorrect        12675                       # Number of branches that were predicted taken incorrectly
system.switch_cpus1.iew.wb_consumers        507897139                       # num instructions consuming a value
system.switch_cpus1.iew.wb_count            413009444                       # cumulative count of insts written-back
system.switch_cpus1.iew.wb_fanout            0.602657                       # average fanout of values written-back
system.switch_cpus1.iew.wb_producers        306087848                       # num instructions producing a value
system.switch_cpus1.iew.wb_rate              1.512731                       # insts written-back per cycle
system.switch_cpus1.iew.wb_sent             413028413                       # cumulative count of insts sent to commit
system.switch_cpus1.int_regfile_reads       405415799                       # number of integer regfile reads
system.switch_cpus1.int_regfile_writes      190885589                       # number of integer regfile writes
system.switch_cpus1.ipc                      0.915528                       # IPC: Instructions Per Cycle
system.switch_cpus1.ipc_total                0.915528                       # IPC: Total IPC of All Threads
system.switch_cpus1.iq.FU_type_0::No_OpClass        11916      0.00%      0.00% # Type of FU issued
system.switch_cpus1.iq.FU_type_0::IntAlu    221759597     53.68%     53.68% # Type of FU issued
system.switch_cpus1.iq.FU_type_0::IntMult        17892      0.00%     53.69% # Type of FU issued
system.switch_cpus1.iq.FU_type_0::IntDiv            0      0.00%     53.69% # Type of FU issued
system.switch_cpus1.iq.FU_type_0::FloatAdd     12494691      3.02%     56.71% # Type of FU issued
system.switch_cpus1.iq.FU_type_0::FloatCmp            0      0.00%     56.71% # Type of FU issued
system.switch_cpus1.iq.FU_type_0::FloatCvt            0      0.00%     56.71% # Type of FU issued
system.switch_cpus1.iq.FU_type_0::FloatMult            0      0.00%     56.71% # Type of FU issued
system.switch_cpus1.iq.FU_type_0::FloatMultAcc            0      0.00%     56.71% # Type of FU issued
system.switch_cpus1.iq.FU_type_0::FloatDiv            0      0.00%     56.71% # Type of FU issued
system.switch_cpus1.iq.FU_type_0::FloatMisc            0      0.00%     56.71% # Type of FU issued
system.switch_cpus1.iq.FU_type_0::FloatSqrt            0      0.00%     56.71% # Type of FU issued
system.switch_cpus1.iq.FU_type_0::SimdAdd            0      0.00%     56.71% # Type of FU issued
system.switch_cpus1.iq.FU_type_0::SimdAddAcc            0      0.00%     56.71% # Type of FU issued
system.switch_cpus1.iq.FU_type_0::SimdAlu      8955684      2.17%     58.88% # Type of FU issued
system.switch_cpus1.iq.FU_type_0::SimdCmp            0      0.00%     58.88% # Type of FU issued
system.switch_cpus1.iq.FU_type_0::SimdCvt            0      0.00%     58.88% # Type of FU issued
system.switch_cpus1.iq.FU_type_0::SimdMisc      5330726      1.29%     60.17% # Type of FU issued
system.switch_cpus1.iq.FU_type_0::SimdMult            0      0.00%     60.17% # Type of FU issued
system.switch_cpus1.iq.FU_type_0::SimdMultAcc            0      0.00%     60.17% # Type of FU issued
system.switch_cpus1.iq.FU_type_0::SimdShift            0      0.00%     60.17% # Type of FU issued
system.switch_cpus1.iq.FU_type_0::SimdShiftAcc            0      0.00%     60.17% # Type of FU issued
system.switch_cpus1.iq.FU_type_0::SimdDiv            0      0.00%     60.17% # Type of FU issued
system.switch_cpus1.iq.FU_type_0::SimdSqrt            0      0.00%     60.17% # Type of FU issued
system.switch_cpus1.iq.FU_type_0::SimdFloatAdd     30058915      7.28%     67.45% # Type of FU issued
system.switch_cpus1.iq.FU_type_0::SimdFloatAlu            0      0.00%     67.45% # Type of FU issued
system.switch_cpus1.iq.FU_type_0::SimdFloatCmp       376832      0.09%     67.54% # Type of FU issued
system.switch_cpus1.iq.FU_type_0::SimdFloatCvt      6592912      1.60%     69.13% # Type of FU issued
system.switch_cpus1.iq.FU_type_0::SimdFloatDiv      3033992      0.73%     69.87% # Type of FU issued
system.switch_cpus1.iq.FU_type_0::SimdFloatMisc            0      0.00%     69.87% # Type of FU issued
system.switch_cpus1.iq.FU_type_0::SimdFloatMult     27032645      6.54%     76.41% # Type of FU issued
system.switch_cpus1.iq.FU_type_0::SimdFloatMultAcc            0      0.00%     76.41% # Type of FU issued
system.switch_cpus1.iq.FU_type_0::SimdFloatSqrt       505998      0.12%     76.53% # Type of FU issued
system.switch_cpus1.iq.FU_type_0::SimdReduceAdd            0      0.00%     76.53% # Type of FU issued
system.switch_cpus1.iq.FU_type_0::SimdReduceAlu            0      0.00%     76.53% # Type of FU issued
system.switch_cpus1.iq.FU_type_0::SimdReduceCmp            0      0.00%     76.53% # Type of FU issued
system.switch_cpus1.iq.FU_type_0::SimdFloatReduceAdd            0      0.00%     76.53% # Type of FU issued
system.switch_cpus1.iq.FU_type_0::SimdFloatReduceCmp            0      0.00%     76.53% # Type of FU issued
[...]
system.switch_cpus3.commit.numCommittedDist::0    200944376     73.66%     73.66% # Number of insts commited each cycle
system.switch_cpus3.commit.numCommittedDist::1     11949946      4.38%     78.04% # Number of insts commited each cycle
system.switch_cpus3.commit.numCommittedDist::2      4542478      1.67%     79.70% # Number of insts commited each cycle
system.switch_cpus3.commit.numCommittedDist::3      5265696      1.93%     81.63% # Number of insts commited each cycle
system.switch_cpus3.commit.numCommittedDist::4      3240214      1.19%     82.82% # Number of insts commited each cycle
system.switch_cpus3.commit.numCommittedDist::5      2147584      0.79%     83.61% # Number of insts commited each cycle
system.switch_cpus3.commit.numCommittedDist::6      1648802      0.60%     84.21% # Number of insts commited each cycle
system.switch_cpus3.commit.numCommittedDist::7      2391709      0.88%     85.09% # Number of insts commited each cycle
system.switch_cpus3.commit.numCommittedDist::8     40683619     14.91%    100.00% # Number of insts commited each cycle
system.switch_cpus3.commit.numCommittedDist::overflows            0      0.00%    100.00% # Number of insts commited each cycle
system.switch_cpus3.commit.numCommittedDist::min_value            0                       # Number of insts commited each cycle
system.switch_cpus3.commit.numCommittedDist::max_value            8                       # Number of insts commited each cycle
system.switch_cpus3.commit.numCommittedDist::total    272814424                       # Number of insts commited each cycle
system.switch_cpus3.commit.instsCommitted    249950166                       # Number of instructions committed
system.switch_cpus3.commit.opsCommitted     412634493                       # Number of ops (including micro ops) committed
system.switch_cpus3.commit.memRefs           96715149                       # Number of memory references committed
system.switch_cpus3.commit.loads             69231614                       # Number of loads committed
system.switch_cpus3.commit.amos                     0                       # Number of atomic instructions committed
system.switch_cpus3.commit.membars                  0                       # Number of memory barriers committed
system.switch_cpus3.commit.branches          28455810                       # Number of branches committed
system.switch_cpus3.commit.vector                   0                       # Number of committed Vector instructions.
system.switch_cpus3.commit.floating         185407462                       # Number of committed floating point instructions.
system.switch_cpus3.commit.integer          289114187                       # Number of committed integer instructions.
system.switch_cpus3.commit.functionCalls      2180540                       # Number of function calls committed.
system.switch_cpus3.commit.committedInstType_0::No_OpClass        11422      0.00%      0.00% # Class of committed instruction
system.switch_cpus3.commit.committedInstType_0::IntAlu    221540812     53.69%     53.69% # Class of committed instruction
system.switch_cpus3.commit.committedInstType_0::IntMult        17849      0.00%     53.70% # Class of committed instruction
system.switch_cpus3.commit.committedInstType_0::IntDiv            0      0.00%     53.70% # Class of committed instruction
system.switch_cpus3.commit.committedInstType_0::FloatAdd     12493326      3.03%     56.72% # Class of committed instruction
system.switch_cpus3.commit.committedInstType_0::FloatCmp            0      0.00%     56.72% # Class of committed instruction
system.switch_cpus3.commit.committedInstType_0::FloatCvt            0      0.00%     56.72% # Class of committed instruction
system.switch_cpus3.commit.committedInstType_0::FloatMult            0      0.00%     56.72% # Class of committed instruction
system.switch_cpus3.commit.committedInstType_0::FloatMultAcc            0      0.00%     56.72% # Class of committed instruction
system.switch_cpus3.commit.committedInstType_0::FloatDiv            0      0.00%     56.72% # Class of committed instruction
system.switch_cpus3.commit.committedInstType_0::FloatMisc            0      0.00%     56.72% # Class of committed instruction
system.switch_cpus3.commit.committedInstType_0::FloatSqrt            0      0.00%     56.72% # Class of committed instruction
system.switch_cpus3.commit.committedInstType_0::SimdAdd            0      0.00%     56.72% # Class of committed instruction
system.switch_cpus3.commit.committedInstType_0::SimdAddAcc            0      0.00%     56.72% # Class of committed instruction
system.switch_cpus3.commit.committedInstType_0::SimdAlu      8949690      2.17%     58.89% # Class of committed instruction
system.switch_cpus3.commit.committedInstType_0::SimdCmp            0      0.00%     58.89% # Class of committed instruction
system.switch_cpus3.commit.committedInstType_0::SimdCvt            0      0.00%     58.89% # Class of committed instruction
system.switch_cpus3.commit.committedInstType_0::SimdMisc      5330003      1.29%     60.18% # Class of committed instruction
system.switch_cpus3.commit.committedInstType_0::SimdMult            0      0.00%     60.18% # Class of committed instruction
system.switch_cpus3.commit.committedInstType_0::SimdMultAcc            0      0.00%     60.18% # Class of committed instruction
system.switch_cpus3.commit.committedInstType_0::SimdShift            0      0.00%     60.18% # Class of committed instruction
system.switch_cpus3.commit.committedInstType_0::SimdShiftAcc            0      0.00%     60.18% # Class of committed instruction
system.switch_cpus3.commit.committedInstType_0::SimdDiv            0      0.00%     60.18% # Class of committed instruction
system.switch_cpus3.commit.committedInstType_0::SimdSqrt            0      0.00%     60.18% # Class of committed instruction
system.switch_cpus3.commit.committedInstType_0::SimdFloatAdd     30051219      7.28%     67.47% # Class of committed instruction
system.switch_cpus3.commit.committedInstType_0::SimdFloatAlu            0      0.00%     67.47% # Class of committed instruction
system.switch_cpus3.commit.committedInstType_0::SimdFloatCmp       376832      0.09%     67.56% # Class of committed instruction
system.switch_cpus3.commit.committedInstType_0::SimdFloatCvt      6585909      1.60%     69.15% # Class of committed instruction
system.switch_cpus3.commit.committedInstType_0::SimdFloatDiv      3033977      0.74%     69.89% # Class of committed instruction
system.switch_cpus3.commit.committedInstType_0::SimdFloatMisc            0      0.00%     69.89% # Class of committed instruction
system.switch_cpus3.commit.committedInstType_0::SimdFloatMult     27022318      6.55%     76.44% # Class of committed instruction
system.switch_cpus3.commit.committedInstType_0::SimdFloatMultAcc            0      0.00%     76.44% # Class of committed instruction
system.switch_cpus3.commit.committedInstType_0::SimdFloatSqrt       505987      0.12%     76.56% # Class of committed instruction
system.switch_cpus3.commit.committedInstType_0::SimdReduceAdd            0      0.00%     76.56% # Class of committed instruction
system.switch_cpus3.commit.committedInstType_0::SimdReduceAlu            0      0.00%     76.56% # Class of committed instruction
system.switch_cpus3.commit.committedInstType_0::SimdReduceCmp            0      0.00%     76.56% # Class of committed instruction
system.switch_cpus3.commit.committedInstType_0::SimdFloatReduceAdd            0      0.00%     76.56% # Class of committed instruction
system.switch_cpus3.commit.committedInstType_0::SimdFloatReduceCmp            0      0.00%     76.56% # Class of committed instruction
system.switch_cpus3.commit.committedInstType_0::SimdAes            0      0.00%     76.56% # Class of committed instruction
system.switch_cpus3.commit.committedInstType_0::SimdAesMix            0      0.00%     76.56% # Class of committed instruction
system.switch_cpus3.commit.committedInstType_0::SimdSha1Hash            0      0.00%     76.56% # Class of committed instruction
system.switch_cpus3.commit.committedInstType_0::SimdSha1Hash2            0      0.00%     76.56% # Class of committed instruction
system.switch_cpus3.commit.committedInstType_0::SimdSha256Hash            0      0.00%     76.56% # Class of committed instruction
system.switch_cpus3.commit.committedInstType_0::SimdSha256Hash2            0      0.00%     76.56% # Class of committed instruction
system.switch_cpus3.commit.committedInstType_0::SimdShaSigma2            0      0.00%     76.56% # Class of committed instruction
system.switch_cpus3.commit.committedInstType_0::SimdShaSigma3            0      0.00%     76.56% # Class of committed instruction
system.switch_cpus3.commit.committedInstType_0::SimdPredAlu            0      0.00%     76.56% # Class of committed instruction
system.switch_cpus3.commit.committedInstType_0::MemRead     26692468      6.47%     83.03% # Class of committed instruction
system.switch_cpus3.commit.committedInstType_0::MemWrite     13449930      3.26%     86.29% # Class of committed instruction
system.switch_cpus3.commit.committedInstType_0::FloatMemRead     42539146     10.31%     96.60% # Class of committed instruction
system.switch_cpus3.commit.committedInstType_0::FloatMemWrite     14033605      3.40%    100.00% # Class of committed instruction
system.switch_cpus3.commit.committedInstType_0::IprAccess            0      0.00%    100.00% # Class of committed instruction
system.switch_cpus3.commit.committedInstType_0::InstPrefetch            0      0.00%    100.00% # Class of committed instruction
system.switch_cpus3.commit.committedInstType_0::total    412634493                       # Class of committed instruction
system.switch_cpus3.commit.commitEligibleSamples     40683619                       # number cycles where commit BW limit reached
system.switch_cpus3.decode.idleCycles         4132833                       # Number of cycles decode is idle
system.switch_cpus3.decode.blockedCycles    208988393                       # Number of cycles decode is blocked
system.switch_cpus3.decode.runCycles         54227530                       # Number of cycles decode is running
system.switch_cpus3.decode.unblockCycles      5543188                       # Number of cycles decode is unblocking
system.switch_cpus3.decode.squashCycles         20770                       # Number of cycles decode is squashing
system.switch_cpus3.decode.branchResolved      9250033                       # Number of times decode resolved a  branch
system.switch_cpus3.decode.branchMispred          128                       # Number of times decode detected a branch misprediction
system.switch_cpus3.decode.decodedInsts     413640771                       # Number of instructions handled by decode
system.switch_cpus3.decode.squashedInsts          657                       # Number of squashed instructions handled by decode
system.switch_cpus3.dtb.rdAccesses           69366982                       # TLB accesses on read requests
system.switch_cpus3.dtb.wrAccesses           27532862                       # TLB accesses on write requests
system.switch_cpus3.dtb.rdMisses              1091920                       # TLB misses on read requests
system.switch_cpus3.dtb.wrMisses                14184                       # TLB misses on write requests
system.switch_cpus3.dtb.walker.power_state.pwrStateResidencyTicks::UNDEFINED 15742173562506                       # Cumulative time (in ticks) in various power states
system.switch_cpus3.fetch.icacheStallCycles        91432                       # Number of cycles fetch is stalled on an Icache miss
system.switch_cpus3.fetch.insts             250916410                       # Number of instructions fetch has processed
system.switch_cpus3.fetch.branches           28540353                       # Number of branches that fetch encountered
system.switch_cpus3.fetch.predictedBranches     13749937                       # Number of branches that fetch has predicted taken
system.switch_cpus3.fetch.cycles            272800358                       # Number of cycles fetch has run and was not squashing or blocked
system.switch_cpus3.fetch.squashCycles          41794                       # Number of cycles fetch has spent squashing
system.switch_cpus3.fetch.miscStallCycles            5                       # Number of cycles fetch has spent waiting on interrupts,or bad addresses, or out of MSHRs
system.switch_cpus3.fetch.pendingTrapStallCycles           33                       # Number of stall cycles due to pending traps
system.switch_cpus3.fetch.cacheLines         30567283                       # Number of cache lines fetched
system.switch_cpus3.fetch.icacheSquashes          222                       # Number of outstanding Icache misses that were squashed
system.switch_cpus3.fetch.nisnDist::samples    272912725                       # Number of instructions fetched each cycle (Total)
system.switch_cpus3.fetch.nisnDist::mean     1.517107                       # Number of instructions fetched each cycle (Total)
system.switch_cpus3.fetch.nisnDist::stdev     2.940798                       # Number of instructions fetched each cycle (Total)
system.switch_cpus3.fetch.nisnDist::underflows            0      0.00%      0.00% # Number of instructions fetched each cycle (Total)
system.switch_cpus3.fetch.nisnDist::0       206213563     75.56%     75.56% # Number of instructions fetched each cycle (Total)
system.switch_cpus3.fetch.nisnDist::1         5816983      2.13%     77.69% # Number of instructions fetched each cycle (Total)
system.switch_cpus3.fetch.nisnDist::2         2614361      0.96%     78.65% # Number of instructions fetched each cycle (Total)
system.switch_cpus3.fetch.nisnDist::3         6773987      2.48%     81.13% # Number of instructions fetched each cycle (Total)
system.switch_cpus3.fetch.nisnDist::4         2480351      0.91%     82.04% # Number of instructions fetched each cycle (Total)
system.switch_cpus3.fetch.nisnDist::5         3033645      1.11%     83.15% # Number of instructions fetched each cycle (Total)
system.switch_cpus3.fetch.nisnDist::6         3383461      1.24%     84.39% # Number of instructions fetched each cycle (Total)
system.switch_cpus3.fetch.nisnDist::7         3491382      1.28%     85.67% # Number of instructions fetched each cycle (Total)
system.switch_cpus3.fetch.nisnDist::8        39104992     14.33%    100.00% # Number of instructions fetched each cycle (Total)
system.switch_cpus3.fetch.nisnDist::overflows            0      0.00%    100.00% # Number of instructions fetched each cycle (Total)
system.switch_cpus3.fetch.nisnDist::min_value            0                       # Number of instructions fetched each cycle (Total)
system.switch_cpus3.fetch.nisnDist::max_value            8                       # Number of instructions fetched each cycle (Total)
system.switch_cpus3.fetch.nisnDist::total    272912725                       # Number of instructions fetched each cycle (Total)
system.switch_cpus3.fetch.branchRate         0.104535                       # Number of branch fetches per cycle
system.switch_cpus3.fetch.rate               0.919032                       # Number of inst fetches per cycle
system.switch_cpus3.itb.rdAccesses                  0                       # TLB accesses on read requests
system.switch_cpus3.itb.wrAccesses           30567289                       # TLB accesses on write requests
system.switch_cpus3.itb.rdMisses                    0                       # TLB misses on read requests
system.switch_cpus3.itb.wrMisses                   31                       # TLB misses on write requests
system.switch_cpus3.itb.walker.power_state.pwrStateResidencyTicks::UNDEFINED 15742173562506                       # Cumulative time (in ticks) in various power states
system.switch_cpus3.lsq0.forwLoads            4335960                       # Number of loads that had data forwarded from stores
system.switch_cpus3.lsq0.squashedLoads         180230                       # Number of loads squashed
system.switch_cpus3.lsq0.ignoredResponses          143                       # Number of memory responses ignored because the instruction is squashed
system.switch_cpus3.lsq0.memOrderViolation         2253                       # Number of memory ordering violations
system.switch_cpus3.lsq0.squashedStores        105822                       # Number of stores squashed
system.switch_cpus3.lsq0.rescheduledLoads            1                       # Number of loads that were rescheduled
system.switch_cpus3.lsq0.blockedByCache            44                       # Number of times an access to memory failed due to the cache being blocked
system.switch_cpus3.power_state.pwrStateResidencyTicks::OFF  90916485174                       # Cumulative time (in ticks) in various power states
system.switch_cpus3.rename.squashCycles         20770                       # Number of cycles rename is squashing
system.switch_cpus3.rename.idleCycles         6406850                       # Number of cycles rename is idle
system.switch_cpus3.rename.blockCycles       81984796                       # Number of cycles rename is blocking
system.switch_cpus3.rename.serializeStallCycles            0                       # count of cycles rename stalledfor serializing inst
system.switch_cpus3.rename.runCycles         57398438                       # Number of cycles rename is running
system.switch_cpus3.rename.unblockCycles    127101860                       # Number of cycles rename is unblocking
system.switch_cpus3.rename.renamedInsts     413513201                       # Number of instructions processed by rename
system.switch_cpus3.rename.ROBFullEvents       119867                       # Number of times rename has blocked due to ROB full
system.switch_cpus3.rename.IQFullEvents       7031554                       # Number of times rename has blocked due to IQ full
system.switch_cpus3.rename.LQFullEvents      31198547                       # Number of times rename has blocked due to LQ full
system.switch_cpus3.rename.SQFullEvents      90952204                       # Number of times rename has blocked due to SQ full
system.switch_cpus3.rename.renamedOperands    448833087                       # Number of destination operands rename has renamed
system.switch_cpus3.rename.lookups         1010439322                       # Number of register rename lookups that rename has made
system.switch_cpus3.rename.intLookups       405997295                       # Number of integer rename lookups
system.switch_cpus3.rename.fpLookups        302382008                       # Number of floating rename lookups
system.switch_cpus3.rename.committedMaps    447937771                       # Number of HB maps that are committed
system.switch_cpus3.rename.undoneMaps          895198                       # Number of HB maps that are undone due to squashing
system.switch_cpus3.rename.serializing              0                       # count of serializing insts renamed
system.switch_cpus3.rename.tempSerializing            0                       # count of temporary serializing insts renamed
system.switch_cpus3.rename.skidInsts         27956637                       # count of insts added to the skid buffer
system.switch_cpus3.rob.reads               645473845                       # The number of ROB reads
system.switch_cpus3.rob.writes              826784594                       # The number of ROB writes
system.switch_cpus3.thread0.numInsts        249950166                       # Number of Instructions committed
system.switch_cpus3.thread0.numOps          412634493                       # Number of Ops committed
system.switch_cpus3.thread0.numMemRefs              0                       # Number of Memory References
system.voltage_domain.voltage                       1                       # Voltage in Volts

---------- End Simulation Statistics   ----------
