
---------- Begin Simulation Statistics ----------
final_tick                               15740445093705                       # Number of ticks from beginning of simulation (restored from checkpoints and never reset)
host_inst_rate                                 155224                       # Simulator instruction rate (inst/s)
host_mem_usage                               17618620                       # Number of bytes of host memory used
host_op_rate                                   256255                       # Simulator op (including micro ops) rate (op/s)
host_seconds                                  6442.01                       # Real time elapsed on the host
host_tick_rate                               13844738                       # Simulator tick rate (ticks/s)
sim_freq                                 1000000000000                       # Frequency of simulated ticks
sim_insts                                   999954863                       # Number of instructions simulated
sim_ops                                    1650794904                       # Number of ops (including micro ops) simulated
sim_seconds                                  0.089188                       # Number of seconds simulated
sim_ticks                                 89187975747                       # Number of ticks simulated
system.cpu0.Branches                                1                       # Number of branches fetched
system.cpu0.committedInsts                         16                       # Number of instructions committed
system.cpu0.committedOps                           22                       # Number of ops (including micro ops) committed
system.cpu0.idle_fraction                           0                       # Percentage of idle cycles
system.cpu0.l2bus.snoop_filter.hit_multi_requests            2                       # Number of requests hitting in the snoop filter with multiple (>1) holders of the requested data.
system.cpu0.l2bus.snoop_filter.hit_multi_snoops            0                       # Number of snoops hitting in the snoop filter with multiple (>1) holders of the requested data.
system.cpu0.l2bus.snoop_filter.hit_single_requests      2574592                       # Number of requests hitting in the snoop filter with a single holder of the requested data.
system.cpu0.l2bus.snoop_filter.hit_single_snoops         6235                       # Number of snoops hitting in the snoop filter with a single holder of the requested data.
system.cpu0.l2bus.snoop_filter.tot_requests      5019122                       # Total number of requests made to the snoop filter.
system.cpu0.l2bus.snoop_filter.tot_snoops         6235                       # Total number of snoops made to the snoop filter.
system.cpu0.mmucache.mmubus.snoop_filter.hit_multi_requests            0                       # Number of requests hitting in the snoop filter with multiple (>1) holders of the requested data.
system.cpu0.mmucache.mmubus.snoop_filter.hit_multi_snoops            0                       # Number of snoops hitting in the snoop filter with multiple (>1) holders of the requested data.
system.cpu0.mmucache.mmubus.snoop_filter.hit_single_requests            0                       # Number of requests hitting in the snoop filter with a single holder of the requested data.
system.cpu0.mmucache.mmubus.snoop_filter.hit_single_snoops            0                       # Number of snoops hitting in the snoop filter with a single holder of the requested data.
system.cpu0.mmucache.mmubus.snoop_filter.tot_requests            0                       # Total number of requests made to the snoop filter.
system.cpu0.mmucache.mmubus.snoop_filter.tot_snoops            0                       # Total number of snoops made to the snoop filter.
system.cpu0.not_idle_fraction                       1                       # Percentage of non-idle cycles
system.cpu0.numCycles                              30                       # number of cpu cycles simulated
system.cpu0.numWorkItemsCompleted                   0                       # number of work items this cpu completed
system.cpu0.numWorkItemsStarted                     0                       # number of work items this cpu started
system.cpu0.num_busy_cycles                        30                       # Number of busy cycles
system.cpu0.num_cc_register_reads                   5                       # number of times the CC registers were read
system.cpu0.num_cc_register_writes                  6                       # number of times the CC registers were written
system.cpu0.num_conditional_control_insts            1                       # number of instructions that are conditional controls
system.cpu0.num_fp_alu_accesses                    13                       # Number of float alu accesses
system.cpu0.num_fp_insts                           13                       # number of float instructions
system.cpu0.num_fp_register_reads                  23                       # number of times the floating registers were read
system.cpu0.num_fp_register_writes                 12                       # number of times the floating registers were written
system.cpu0.num_func_calls                          0                       # number of times a function call or return occured
system.cpu0.num_idle_cycles                         0                       # Number of idle cycles
system.cpu0.num_int_alu_accesses                   14                       # Number of integer alu accesses
system.cpu0.num_int_insts                          14                       # number of integer instructions
system.cpu0.num_int_register_reads                 31                       # number of times the integer registers were read
system.cpu0.num_int_register_writes                 8                       # number of times the integer registers were written
system.cpu0.num_load_insts                          6                       # Number of load instructions
system.cpu0.num_mem_refs                            7                       # number of memory refs
system.cpu0.num_store_insts                         1                       # Number of store instructions
system.cpu0.num_vec_alu_accesses                    0                       # Number of vector alu accesses
system.cpu0.num_vec_insts                           0                       # number of vector instructions
system.cpu0.num_vec_register_reads                  0                       # number of times the vector registers were read
system.cpu0.num_vec_register_writes                 0                       # number of times the vector registers were written
system.cpu0.op_class::No_OpClass                    0      0.00%      0.00% # Class of executed instruction
system.cpu0.op_class::IntAlu                        9     40.91%     40.91% # Class of executed instruction
system.cpu0.op_class::IntMult                       0      0.00%     40.91% # Class of executed instruction
system.cpu0.op_class::IntDiv                        0      0.00%     40.91% # Class of executed instruction
system.cpu0.op_class::FloatAdd                      0      0.00%     40.91% # Class of executed instruction
system.cpu0.op_class::FloatCmp                      0      0.00%     40.91% # Class of executed instruction
system.cpu0.op_class::FloatCvt                      0      0.00%     40.91% # Class of executed instruction
system.cpu0.op_class::FloatMult                     0      0.00%     40.91% # Class of executed instruction
system.cpu0.op_class::FloatMultAcc                  0      0.00%     40.91% # Class of executed instruction
system.cpu0.op_class::FloatDiv                      0      0.00%     40.91% # Class of executed instruction
system.cpu0.op_class::FloatMisc                     0      0.00%     40.91% # Class of executed instruction
system.cpu0.op_class::FloatSqrt                     0      0.00%     40.91% # Class of executed instruction
system.cpu0.op_class::SimdAdd                       0      0.00%     40.91% # Class of executed instruction
system.cpu0.op_class::SimdAddAcc                    0      0.00%     40.91% # Class of executed instruction
system.cpu0.op_class::SimdAlu                       0      0.00%     40.91% # Class of executed instruction
system.cpu0.op_class::SimdCmp                       0      0.00%     40.91% # Class of executed instruction
system.cpu0.op_class::SimdCvt                       0      0.00%     40.91% # Class of executed instruction
system.cpu0.op_class::SimdMisc                      0      0.00%     40.91% # Class of executed instruction
system.cpu0.op_class::SimdMult                      0      0.00%     40.91% # Class of executed instruction
system.cpu0.op_class::SimdMultAcc                   0      0.00%     40.91% # Class of executed instruction
system.cpu0.op_class::SimdShift                     0      0.00%     40.91% # Class of executed instruction
system.cpu0.op_class::SimdShiftAcc                  0      0.00%     40.91% # Class of executed instruction
system.cpu0.op_class::SimdDiv                       0      0.00%     40.91% # Class of executed instruction
system.cpu0.op_class::SimdSqrt                      0      0.00%     40.91% # Class of executed instruction
system.cpu0.op_class::SimdFloatAdd                  4     18.18%     59.09% # Class of executed instruction
system.cpu0.op_class::SimdFloatAlu                  0      0.00%     59.09% # Class of executed instruction
system.cpu0.op_class::SimdFloatCmp                  0      0.00%     59.09% # Class of executed instruction
system.cpu0.op_class::SimdFloatCvt                  0      0.00%     59.09% # Class of executed instruction
system.cpu0.op_class::SimdFloatDiv                  0      0.00%     59.09% # Class of executed instruction
system.cpu0.op_class::SimdFloatMisc                 0      0.00%     59.09% # Class of executed instruction
system.cpu0.op_class::SimdFloatMult                 2      9.09%     68.18% # Class of executed instruction
system.cpu0.op_class::SimdFloatMultAcc              0      0.00%     68.18% # Class of executed instruction
system.cpu0.op_class::SimdFloatSqrt                 0      0.00%     68.18% # Class of executed instruction
system.cpu0.op_class::SimdReduceAdd                 0      0.00%     68.18% # Class of executed instruction
system.cpu0.op_class::SimdReduceAlu                 0      0.00%     68.18% # Class of executed instruction
system.cpu0.op_class::SimdReduceCmp                 0      0.00%     68.18% # Class of executed instruction
system.cpu0.op_class::SimdFloatReduceAdd            0      0.00%     68.18% # Class of executed instruction
system.cpu0.op_class::SimdFloatReduceCmp            0      0.00%     68.18% # Class of executed instruction
system.cpu0.op_class::SimdAes                       0      0.00%     68.18% # Class of executed instruction
system.cpu0.op_class::SimdAesMix                    0      0.00%     68.18% # Class of executed instruction
system.cpu0.op_class::SimdSha1Hash                  0      0.00%     68.18% # Class of executed instruction
system.cpu0.op_class::SimdSha1Hash2                 0      0.00%     68.18% # Class of executed instruction
system.cpu0.op_class::SimdSha256Hash                0      0.00%     68.18% # Class of executed instruction
system.cpu0.op_class::SimdSha256Hash2               0      0.00%     68.18% # Class of executed instruction
system.cpu0.op_class::SimdShaSigma2                 0      0.00%     68.18% # Class of executed instruction
system.cpu0.op_class::SimdShaSigma3                 0      0.00%     68.18% # Class of executed instruction
system.cpu0.op_class::SimdPredAlu                   0      0.00%     68.18% # Class of executed instruction
system.cpu0.op_class::MemRead                       2      9.09%     77.27% # Class of executed instruction
system.cpu0.op_class::MemWrite                      0      0.00%     77.27% # Class of executed instruction
system.cpu0.op_class::FloatMemRead                  4     18.18%     95.45% # Class of executed instruction
system.cpu0.op_class::FloatMemWrite                 1      4.55%    100.00% # Class of executed instruction
system.cpu0.op_class::IprAccess                     0      0.00%    100.00% # Class of executed instruction
system.cpu0.op_class::InstPrefetch                  0      0.00%    100.00% # Class of executed instruction
system.cpu0.op_class::total                        22                       # Class of executed instruction
system.cpu0.workload.numSyscalls                    0                       # Number of system calls
system.cpu1.Branches                                1                       # Number of branches fetched
system.cpu1.committedInsts                         16                       # Number of instructions committed
system.cpu1.committedOps                           22                       # Number of ops (including micro ops) committed
system.cpu1.idle_fraction                           0                       # Percentage of idle cycles
system.cpu1.l2bus.snoop_filter.hit_multi_requests            3                       # Number of requests hitting in the snoop filter with multiple (>1) holders of the requested data.
system.cpu1.l2bus.snoop_filter.hit_multi_snoops            0                       # Number of snoops hitting in the snoop filter with multiple (>1) holders of the requested data.
system.cpu1.l2bus.snoop_filter.hit_single_requests      2574801                       # Number of requests hitting in the snoop filter with a single holder of the requested data.
system.cpu1.l2bus.snoop_filter.hit_single_snoops         6172                       # Number of snoops hitting in the snoop filter with a single holder of the requested data.
system.cpu1.l2bus.snoop_filter.tot_requests      5019434                       # Total number of requests made to the snoop filter.
system.cpu1.l2bus.snoop_filter.tot_snoops         6172                       # Total number of snoops made to the snoop filter.
system.cpu1.mmucache.mmubus.snoop_filter.hit_multi_requests            0                       # Number of requests hitting in the snoop filter with multiple (>1) holders of the requested data.
system.cpu1.mmucache.mmubus.snoop_filter.hit_multi_snoops            0                       # Number of snoops hitting in the snoop filter with multiple (>1) holders of the requested data.
system.cpu1.mmucache.mmubus.snoop_filter.hit_single_requests            0                       # Number of requests hitting in the snoop filter with a single holder of the requested data.
system.cpu1.mmucache.mmubus.snoop_filter.hit_single_snoops            0                       # Number of snoops hitting in the snoop filter with a single holder of the requested data.
system.cpu1.mmucache.mmubus.snoop_filter.tot_requests            0                       # Total number of requests made to the snoop filter.
system.cpu1.mmucache.mmubus.snoop_filter.tot_snoops            0                       # Total number of snoops made to the snoop filter.
system.cpu1.not_idle_fraction                       1                       # Percentage of non-idle cycles
system.cpu1.numCycles                              30                       # number of cpu cycles simulated
system.cpu1.numWorkItemsCompleted                   0                       # number of work items this cpu completed
system.cpu1.numWorkItemsStarted                     0                       # number of work items this cpu started
system.cpu1.num_busy_cycles                        30                       # Number of busy cycles
system.cpu1.num_cc_register_reads                   5                       # number of times the CC registers were read
system.cpu1.num_cc_register_writes                  6                       # number of times the CC registers were written
system.cpu1.num_conditional_control_insts            1                       # number of instructions that are conditional controls
system.cpu1.num_fp_alu_accesses                    13                       # Number of float alu accesses
system.cpu1.num_fp_insts                           13                       # number of float instructions
system.cpu1.num_fp_register_reads                  23                       # number of times the floating registers were read
system.cpu1.num_fp_register_writes                 12                       # number of times the floating registers were written
system.cpu1.num_func_calls                          0                       # number of times a function call or return occured
system.cpu1.num_idle_cycles                         0                       # Number of idle cycles
system.cpu1.num_int_alu_accesses                   14                       # Number of integer alu accesses
system.cpu1.num_int_insts                          14                       # number of integer instructions
system.cpu1.num_int_register_reads                 31                       # number of times the integer registers were read
system.cpu1.num_int_register_writes                 8                       # number of times the integer registers were written
system.cpu1.num_load_insts                          6                       # Number of load instructions
system.cpu1.num_mem_refs                            7                       # number of memory refs
system.cpu1.num_store_insts                         1                       # Number of store instructions
system.cpu1.num_vec_alu_accesses                    0                       # Number of vector alu accesses
system.cpu1.num_vec_insts                           0                       # number of vector instructions
system.cpu1.num_vec_register_reads                  0                       # number of times the vector registers were read
system.cpu1.num_vec_register_writes                 0                       # number of times the vector registers were written
system.cpu1.op_class::No_OpClass                    0      0.00%      0.00% # Class of executed instruction
system.cpu1.op_class::IntAlu                        9     40.91%     40.91% # Class of executed instruction
system.cpu1.op_class::IntMult                       0      0.00%     40.91% # Class of executed instruction
system.cpu1.op_class::IntDiv                        0      0.00%     40.91% # Class of executed instruction
system.cpu1.op_class::FloatAdd                      0      0.00%     40.91% # Class of executed instruction
system.cpu1.op_class::FloatCmp                      0      0.00%     40.91% # Class of executed instruction
system.cpu1.op_class::FloatCvt                      0      0.00%     40.91% # Class of executed instruction
system.cpu1.op_class::FloatMult                     0      0.00%     40.91% # Class of executed instruction
system.cpu1.op_class::FloatMultAcc                  0      0.00%     40.91% # Class of executed instruction
system.cpu1.op_class::FloatDiv                      0      0.00%     40.91% # Class of executed instruction
system.cpu1.op_class::FloatMisc                     0      0.00%     40.91% # Class of executed instruction
system.cpu1.op_class::FloatSqrt                     0      0.00%     40.91% # Class of executed instruction
system.cpu1.op_class::SimdAdd                       0      0.00%     40.91% # Class of executed instruction
system.cpu1.op_class::SimdAddAcc                    0      0.00%     40.91% # Class of executed instruction
system.cpu1.op_class::SimdAlu                       0      0.00%     40.91% # Class of executed instruction
system.cpu1.op_class::SimdCmp                       0      0.00%     40.91% # Class of executed instruction
system.cpu1.op_class::SimdCvt                       0      0.00%     40.91% # Class of executed instruction
system.cpu1.op_class::SimdMisc                      0      0.00%     40.91% # Class of executed instruction
system.cpu1.op_class::SimdMult                      0      0.00%     40.91% # Class of executed instruction
system.cpu1.op_class::SimdMultAcc                   0      0.00%     40.91% # Class of executed instruction
system.cpu1.op_class::SimdShift                     0      0.00%     40.91% # Class of executed instruction
system.cpu1.op_class::SimdShiftAcc                  0      0.00%     40.91% # Class of executed instruction
system.cpu1.op_class::SimdDiv                       0      0.00%     40.91% # Class of executed instruction
system.cpu1.op_class::SimdSqrt                      0      0.00%     40.91% # Class of executed instruction
system.cpu1.op_class::SimdFloatAdd                  4     18.18%     59.09% # Class of executed instruction
system.cpu1.op_class::SimdFloatAlu                  0      0.00%     59.09% # Class of executed instruction
system.cpu1.op_class::SimdFloatCmp                  0      0.00%     59.09% # Class of executed instruction
system.cpu1.op_class::SimdFloatCvt                  0      0.00%     59.09% # Class of executed instruction
system.cpu1.op_class::SimdFloatDiv                  0      0.00%     59.09% # Class of executed instruction
system.cpu1.op_class::SimdFloatMisc                 0      0.00%     59.09% # Class of executed instruction
system.cpu1.op_class::SimdFloatMult                 2      9.09%     68.18% # Class of executed instruction
system.cpu1.op_class::SimdFloatMultAcc              0      0.00%     68.18% # Class of executed instruction
system.cpu1.op_class::SimdFloatSqrt                 0      0.00%     68.18% # Class of executed instruction
system.cpu1.op_class::SimdReduceAdd                 0      0.00%     68.18% # Class of executed instruction
system.cpu1.op_class::SimdReduceAlu                 0      0.00%     68.18% # Class of executed instruction
system.cpu1.op_class::SimdReduceCmp                 0      0.00%     68.18% # Class of executed instruction
system.cpu1.op_class::SimdFloatReduceAdd            0      0.00%     68.18% # Class of executed instruction
system.cpu1.op_class::SimdFloatReduceCmp            0      0.00%     68.18% # Class of executed instruction
system.cpu1.op_class::SimdAes                       0      0.00%     68.18% # Class of executed instruction
system.cpu1.op_class::SimdAesMix                    0      0.00%     68.18% # Class of executed instruction
system.cpu1.op_class::SimdSha1Hash                  0      0.00%     68.18% # Class of executed instruction
system.cpu1.op_class::SimdSha1Hash2                 0      0.00%     68.18% # Class of executed instruction
system.cpu1.op_class::SimdSha256Hash                0      0.00%     68.18% # Class of executed instruction
system.cpu1.op_class::SimdSha256Hash2               0      0.00%     68.18% # Class of executed instruction
system.cpu1.op_class::SimdShaSigma2                 0      0.00%     68.18% # Class of executed instruction
system.cpu1.op_class::SimdShaSigma3                 0      0.00%     68.18% # Class of executed instruction
system.cpu1.op_class::SimdPredAlu                   0      0.00%     68.18% # Class of executed instruction
system.cpu1.op_class::MemRead                       2      9.09%     77.27% # Class of executed instruction
system.cpu1.op_class::MemWrite                      0      0.00%     77.27% # Class of executed instruction
system.cpu1.op_class::FloatMemRead                  4     18.18%     95.45% # Class of executed instruction
system.cpu1.op_class::FloatMemWrite                 1      4.55%    100.00% # Class of executed instruction
system.cpu1.op_class::IprAccess                     0      0.00%    100.00% # Class of executed instruction
system.cpu1.op_class::InstPrefetch                  0      0.00%    100.00% # Class of executed instruction
system.cpu1.op_class::total                        22                       # Class of executed instruction
system.cpu1.workload.numSyscalls                    0                       # Number of system calls
system.cpu2.Branches                                1                       # Number of branches fetched
system.cpu2.committedInsts                         16                       # Number of instructions committed
system.cpu2.committedOps                           22                       # Number of ops (including micro ops) committed
system.cpu2.idle_fraction                           0                       # Percentage of idle cycles
system.cpu2.l2bus.snoop_filter.hit_multi_requests            2                       # Number of requests hitting in the snoop filter with multiple (>1) holders of the requested data.
system.cpu2.l2bus.snoop_filter.hit_multi_snoops            0                       # Number of snoops hitting in the snoop filter with multiple (>1) holders of the requested data.
system.cpu2.l2bus.snoop_filter.hit_single_requests      2573826                       # Number of requests hitting in the snoop filter with a single holder of the requested data.
system.cpu2.l2bus.snoop_filter.hit_single_snoops         5773                       # Number of snoops hitting in the snoop filter with a single holder of the requested data.
system.cpu2.l2bus.snoop_filter.tot_requests      5018413                       # Total number of requests made to the snoop filter.
system.cpu2.l2bus.snoop_filter.tot_snoops         5773                       # Total number of snoops made to the snoop filter.
system.cpu2.mmucache.mmubus.snoop_filter.hit_multi_requests            0                       # Number of requests hitting in the snoop filter with multiple (>1) holders of the requested data.
system.cpu2.mmucache.mmubus.snoop_filter.hit_multi_snoops            0                       # Number of snoops hitting in the snoop filter with multiple (>1) holders of the requested data.
system.cpu2.mmucache.mmubus.snoop_filter.hit_single_requests            0                       # Number of requests hitting in the snoop filter with a single holder of the requested data.
system.cpu2.mmucache.mmubus.snoop_filter.hit_single_snoops            0                       # Number of snoops hitting in the snoop filter with a single holder of the requested data.
system.cpu2.mmucache.mmubus.snoop_filter.tot_requests            0                       # Total number of requests made to the snoop filter.
system.cpu2.mmucache.mmubus.snoop_filter.tot_snoops            0                       # Total number of snoops made to the snoop filter.
system.cpu2.not_idle_fraction                       1                       # Percentage of non-idle cycles
system.cpu2.numCycles                              30                       # number of cpu cycles simulated
system.cpu2.numWorkItemsCompleted                   0                       # number of work items this cpu completed
system.cpu2.numWorkItemsStarted                     0                       # number of work items this cpu started
system.cpu2.num_busy_cycles                        30                       # Number of busy cycles
system.cpu2.num_cc_register_reads                   5                       # number of times the CC registers were read
system.cpu2.num_cc_register_writes                  6                       # number of times the CC registers were written
system.cpu2.num_conditional_control_insts            1                       # number of instructions that are conditional controls
system.cpu2.num_fp_alu_accesses                    13                       # Number of float alu accesses
system.cpu2.num_fp_insts                           13                       # number of float instructions
system.cpu2.num_fp_register_reads                  23                       # number of times the floating registers were read
system.cpu2.num_fp_register_writes                 12                       # number of times the floating registers were written
system.cpu2.num_func_calls                          0                       # number of times a function call or return occured
system.cpu2.num_idle_cycles                         0                       # Number of idle cycles
system.cpu2.num_int_alu_accesses                   14                       # Number of integer alu accesses
system.cpu2.num_int_insts                          14                       # number of integer instructions
system.cpu2.num_int_register_reads                 31                       # number of times the integer registers were read
system.cpu2.num_int_register_writes                 8                       # number of times the integer registers were written
system.cpu2.num_load_insts                          6                       # Number of load instructions
system.cpu2.num_mem_refs                            7                       # number of memory refs
system.cpu2.num_store_insts                         1                       # Number of store instructions
system.cpu2.num_vec_alu_accesses                    0                       # Number of vector alu accesses
system.cpu2.num_vec_insts                           0                       # number of vector instructions
system.cpu2.num_vec_register_reads                  0                       # number of times the vector registers were read
system.cpu2.num_vec_register_writes                 0                       # number of times the vector registers were written
system.cpu2.op_class::No_OpClass                    0      0.00%      0.00% # Class of executed instruction
system.cpu2.op_class::IntAlu                        9     40.91%     40.91% # Class of executed instruction
system.cpu2.op_class::IntMult                       0      0.00%     40.91% # Class of executed instruction
system.cpu2.op_class::IntDiv                        0      0.00%     40.91% # Class of executed instruction
system.cpu2.op_class::FloatAdd                      0      0.00%     40.91% # Class of executed instruction
system.cpu2.op_class::FloatCmp                      0      0.00%     40.91% # Class of executed instruction
system.cpu2.op_class::FloatCvt                      0      0.00%     40.91% # Class of executed instruction
system.cpu2.op_class::FloatMult                     0      0.00%     40.91% # Class of executed instruction
system.cpu2.op_class::FloatMultAcc                  0      0.00%     40.91% # Class of executed instruction
system.cpu2.op_class::FloatDiv                      0      0.00%     40.91% # Class of executed instruction
system.cpu2.op_class::FloatMisc                     0      0.00%     40.91% # Class of executed instruction
system.cpu2.op_class::FloatSqrt                     0      0.00%     40.91% # Class of executed instruction
system.cpu2.op_class::SimdAdd                       0      0.00%     40.91% # Class of executed instruction
system.cpu2.op_class::SimdAddAcc                    0      0.00%     40.91% # Class of executed instruction
system.cpu2.op_class::SimdAlu                       0      0.00%     40.91% # Class of executed instruction
system.cpu2.op_class::SimdCmp                       0      0.00%     40.91% # Class of executed instruction
system.cpu2.op_class::SimdCvt                       0      0.00%     40.91% # Class of executed instruction
system.cpu2.op_class::SimdMisc                      0      0.00%     40.91% # Class of executed instruction
system.cpu2.op_class::SimdMult                      0      0.00%     40.91% # Class of executed instruction
system.cpu2.op_class::SimdMultAcc                   0      0.00%     40.91% # Class of executed instruction
system.cpu2.op_class::SimdShift                     0      0.00%     40.91% # Class of executed instruction
system.cpu2.op_class::SimdShiftAcc                  0      0.00%     40.91% # Class of executed instruction
system.cpu2.op_class::SimdDiv                       0      0.00%     40.91% # Class of executed instruction
system.cpu2.op_class::SimdSqrt                      0      0.00%     40.91% # Class of executed instruction
system.cpu2.op_class::SimdFloatAdd                  4     18.18%     59.09% # Class of executed instruction
system.cpu2.op_class::SimdFloatAlu                  0      0.00%     59.09% # Class of executed instruction
system.cpu2.op_class::SimdFloatCmp                  0      0.00%     59.09% # Class of executed instruction
system.cpu2.op_class::SimdFloatCvt                  0      0.00%     59.09% # Class of executed instruction
system.cpu2.op_class::SimdFloatDiv                  0      0.00%     59.09% # Class of executed instruction
system.cpu2.op_class::SimdFloatMisc                 0      0.00%     59.09% # Class of executed instruction
system.cpu2.op_class::SimdFloatMult                 2      9.09%     68.18% # Class of executed instruction
system.cpu2.op_class::SimdFloatMultAcc              0      0.00%     68.18% # Class of executed instruction
system.cpu2.op_class::SimdFloatSqrt                 0      0.00%     68.18% # Class of executed instruction
system.cpu2.op_class::SimdReduceAdd                 0      0.00%     68.18% # Class of executed instruction
system.cpu2.op_class::SimdReduceAlu                 0      0.00%     68.18% # Class of executed instruction
system.cpu2.op_class::SimdReduceCmp                 0      0.00%     68.18% # Class of executed instruction
system.cpu2.op_class::SimdFloatReduceAdd            0      0.00%     68.18% # Class of executed instruction
system.cpu2.op_class::SimdFloatReduceCmp            0      0.00%     68.18% # Class of executed instruction
system.cpu2.op_class::SimdAes                       0      0.00%     68.18% # Class of executed instruction
system.cpu2.op_class::SimdAesMix                    0      0.00%     68.18% # Class of executed instruction
system.cpu2.op_class::SimdSha1Hash                  0      0.00%     68.18% # Class of executed instruction
system.cpu2.op_class::SimdSha1Hash2                 0      0.00%     68.18% # Class of executed instruction
system.cpu2.op_class::SimdSha256Hash                0      0.00%     68.18% # Class of executed instruction
system.cpu2.op_class::SimdSha256Hash2               0      0.00%     68.18% # Class of executed instruction
system.cpu2.op_class::SimdShaSigma2                 0      0.00%     68.18% # Class of executed instruction
system.cpu2.op_class::SimdShaSigma3                 0      0.00%     68.18% # Class of executed instruction
system.cpu2.op_class::SimdPredAlu                   0      0.00%     68.18% # Class of executed instruction
system.cpu2.op_class::MemRead                       2      9.09%     77.27% # Class of executed instruction
system.cpu2.op_class::MemWrite                      0      0.00%     77.27% # Class of executed instruction
system.cpu2.op_class::FloatMemRead                  4     18.18%     95.45% # Class of executed instruction
system.cpu2.op_class::FloatMemWrite                 1      4.55%    100.00% # Class of executed instruction
system.cpu2.op_class::IprAccess                     0      0.00%    100.00% # Class of executed instruction
system.cpu2.op_class::InstPrefetch                  0      0.00%    100.00% # Class of executed instruction
system.cpu2.op_class::total                        22                       # Class of executed instruction
system.cpu2.workload.numSyscalls                    0                       # Number of system calls
system.cpu3.Branches                                1                       # Number of branches fetched
system.cpu3.committedInsts                         16                       # Number of instructions committed
system.cpu3.committedOps                           22                       # Number of ops (including micro ops) committed
system.cpu3.idle_fraction                           0                       # Percentage of idle cycles
system.cpu3.l2bus.snoop_filter.hit_multi_requests            2                       # Number of requests hitting in the snoop filter with multiple (>1) holders of the requested data.
system.cpu3.l2bus.snoop_filter.hit_multi_snoops            0                       # Number of snoops hitting in the snoop filter with multiple (>1) holders of the requested data.
system.cpu3.l2bus.snoop_filter.hit_single_requests      2573905                       # Number of requests hitting in the snoop filter with a single holder of the requested data.
system.cpu3.l2bus.snoop_filter.hit_single_snoops         5766                       # Number of snoops hitting in the snoop filter with a single holder of the requested data.
system.cpu3.l2bus.snoop_filter.tot_requests      5018548                       # Total number of requests made to the snoop filter.
system.cpu3.l2bus.snoop_filter.tot_snoops         5766                       # Total number of snoops made to the snoop filter.
system.cpu3.mmucache.mmubus.snoop_filter.hit_multi_requests            0                       # Number of requests hitting in the snoop filter with multiple (>1) holders of the requested data.
system.cpu3.mmucache.mmubus.snoop_filter.hit_multi_snoops            0                       # Number of snoops hitting in the snoop filter with multiple (>1) holders of the requested data.
system.cpu3.mmucache.mmubus.snoop_filter.hit_single_requests            0                       # Number of requests hitting in the snoop filter with a single holder of the requested data.
system.cpu3.mmucache.mmubus.snoop_filter.hit_single_snoops            0                       # Number of snoops hitting in the snoop filter with a single holder of the requested data.
system.cpu3.mmucache.mmubus.snoop_filter.tot_requests            0                       # Total number of requests made to the snoop filter.
system.cpu3.mmucache.mmubus.snoop_filter.tot_snoops            0                       # Total number of snoops made to the snoop filter.
system.cpu3.not_idle_fraction                       1                       # Percentage of non-idle cycles
system.cpu3.numCycles                              30                       # number of cpu cycles simulated
system.cpu3.numWorkItemsCompleted                   0                       # number of work items this cpu completed
system.cpu3.numWorkItemsStarted                     0                       # number of work items this cpu started
system.cpu3.num_busy_cycles                        30                       # Number of busy cycles
system.cpu3.num_cc_register_reads                   5                       # number of times the CC registers were read
system.cpu3.num_cc_register_writes                  6                       # number of times the CC registers were written
system.cpu3.num_conditional_control_insts            1                       # number of instructions that are conditional controls
system.cpu3.num_fp_alu_accesses                    13                       # Number of float alu accesses
system.cpu3.num_fp_insts                           13                       # number of float instructions
system.cpu3.num_fp_register_reads                  23                       # number of times the floating registers were read
system.cpu3.num_fp_register_writes                 12                       # number of times the floating registers were written
system.cpu3.num_func_calls                          0                       # number of times a function call or return occured
system.cpu3.num_idle_cycles                         0                       # Number of idle cycles
system.cpu3.num_int_alu_accesses                   14                       # Number of integer alu accesses
system.cpu3.num_int_insts                          14                       # number of integer instructions
system.cpu3.num_int_register_reads                 31                       # number of times the integer registers were read
system.cpu3.num_int_register_writes                 8                       # number of times the integer registers were written
system.cpu3.num_load_insts                          6                       # Number of load instructions
system.cpu3.num_mem_refs                            7                       # number of memory refs
system.cpu3.num_store_insts                         1                       # Number of store instructions
system.cpu3.num_vec_alu_accesses                    0                       # Number of vector alu accesses
system.cpu3.num_vec_insts                           0                       # number of vector instructions
system.cpu3.num_vec_register_reads                  0                       # number of times the vector registers were read
system.cpu3.num_vec_register_writes                 0                       # number of times the vector registers were written
system.cpu3.op_class::No_OpClass                    0      0.00%      0.00% # Class of executed instruction
system.cpu3.op_class::IntAlu                        9     40.91%     40.91% # Class of executed instruction
system.cpu3.op_class::IntMult                       0      0.00%     40.91% # Class of executed instruction
system.cpu3.op_class::IntDiv                        0      0.00%     40.91% # Class of executed instruction
system.cpu3.op_class::FloatAdd                      0      0.00%     40.91% # Class of executed instruction
system.cpu3.op_class::FloatCmp                      0      0.00%     40.91% # Class of executed instruction
system.cpu3.op_class::FloatCvt                      0      0.00%     40.91% # Class of executed instruction
system.cpu3.op_class::FloatMult                     0      0.00%     40.91% # Class of executed instruction
system.cpu3.op_class::FloatMultAcc                  0      0.00%     40.91% # Class of executed instruction
system.cpu3.op_class::FloatDiv                      0      0.00%     40.91% # Class of executed instruction
system.cpu3.op_class::FloatMisc                     0      0.00%     40.91% # Class of executed instruction
system.cpu3.op_class::FloatSqrt                     0      0.00%     40.91% # Class of executed instruction
system.cpu3.op_class::SimdAdd                       0      0.00%     40.91% # Class of executed instruction
system.cpu3.op_class::SimdAddAcc                    0      0.00%     40.91% # Class of executed instruction
system.cpu3.op_class::SimdAlu                       0      0.00%     40.91% # Class of executed instruction
system.cpu3.op_class::SimdCmp                       0      0.00%     40.91% # Class of executed instruction
system.cpu3.op_class::SimdCvt                       0      0.00%     40.91% # Class of executed instruction
system.cpu3.op_class::SimdMisc                      0      0.00%     40.91% # Class of executed instruction
system.cpu3.op_class::SimdMult                      0      0.00%     40.91% # Class of executed instruction
system.cpu3.op_class::SimdMultAcc                   0      0.00%     40.91% # Class of executed instruction
system.cpu3.op_class::SimdShift                     0      0.00%     40.91% # Class of executed instruction
system.cpu3.op_class::SimdShiftAcc                  0      0.00%     40.91% # Class of executed instruction
system.cpu3.op_class::SimdDiv                       0      0.00%     40.91% # Class of executed instruction
system.cpu3.op_class::SimdSqrt                      0      0.00%     40.91% # Class of executed instruction
system.cpu3.op_class::SimdFloatAdd                  4     18.18%     59.09% # Class of executed instruction
system.cpu3.op_class::SimdFloatAlu                  0      0.00%     59.09% # Class of executed instruction
system.cpu3.op_class::SimdFloatCmp                  0      0.00%     59.09% # Class of executed instruction
system.cpu3.op_class::SimdFloatCvt                  0      0.00%     59.09% # Class of executed instruction
system.cpu3.op_class::SimdFloatDiv                  0      0.00%     59.09% # Class of executed instruction
system.cpu3.op_class::SimdFloatMisc                 0      0.00%     59.09% # Class of executed instruction
system.cpu3.op_class::SimdFloatMult                 2      9.09%     68.18% # Class of executed instruction
system.cpu3.op_class::SimdFloatMultAcc              0      0.00%     68.18% # Class of executed instruction
system.cpu3.op_class::SimdFloatSqrt                 0      0.00%     68.18% # Class of executed instruction
system.cpu3.op_class::SimdReduceAdd                 0      0.00%     68.18% # Class of executed instruction
system.cpu3.op_class::SimdReduceAlu                 0      0.00%     68.18% # Class of executed instruction
system.cpu3.op_class::SimdReduceCmp                 0      0.00%     68.18% # Class of executed instruction
system.cpu3.op_class::SimdFloatReduceAdd            0      0.00%     68.18% # Class of executed instruction
system.cpu3.op_class::SimdFloatReduceCmp            0      0.00%     68.18% # Class of executed instruction
system.cpu3.op_class::SimdAes                       0      0.00%     68.18% # Class of executed instruction
system.cpu3.op_class::SimdAesMix                    0      0.00%     68.18% # Class of executed instruction
system.cpu3.op_class::SimdSha1Hash                  0      0.00%     68.18% # Class of executed instruction
system.cpu3.op_class::SimdSha1Hash2                 0      0.00%     68.18% # Class of executed instruction
system.cpu3.op_class::SimdSha256Hash                0      0.00%     68.18% # Class of executed instruction
system.cpu3.op_class::SimdSha256Hash2               0      0.00%     68.18% # Class of executed instruction
system.cpu3.op_class::SimdShaSigma2                 0      0.00%     68.18% # Class of executed instruction
system.cpu3.op_class::SimdShaSigma3                 0      0.00%     68.18% # Class of executed instruction
system.cpu3.op_class::SimdPredAlu                   0      0.00%     68.18% # Class of executed instruction
system.cpu3.op_class::MemRead                       2      9.09%     77.27% # Class of executed instruction
system.cpu3.op_class::MemWrite                      0      0.00%     77.27% # Class of executed instruction
system.cpu3.op_class::FloatMemRead                  4     18.18%     95.45% # Class of executed instruction
system.cpu3.op_class::FloatMemWrite                 1      4.55%    100.00% # Class of executed instruction
system.cpu3.op_class::IprAccess                     0      0.00%    100.00% # Class of executed instruction
system.cpu3.op_class::InstPrefetch                  0      0.00%    100.00% # Class of executed instruction
system.cpu3.op_class::total                        22                       # Class of executed instruction
system.cpu3.workload.numSyscalls                    0                       # Number of system calls
system.l3bus.snoop_filter.hit_multi_requests            0                       # Number of requests hitting in the snoop filter with multiple (>1) holders of the requested data.
system.l3bus.snoop_filter.hit_multi_snoops            0                       # Number of snoops hitting in the snoop filter with multiple (>1) holders of the requested data.
system.l3bus.snoop_filter.hit_single_requests      7491195                       # Number of requests hitting in the snoop filter with a single holder of the requested data.
system.l3bus.snoop_filter.hit_single_snoops            5                       # Number of snoops hitting in the snoop filter with a single holder of the requested data.
system.l3bus.snoop_filter.tot_requests       15053731                       # Total number of requests made to the snoop filter.
system.l3bus.snoop_filter.tot_snoops                5                       # Total number of snoops made to the snoop filter.
system.membus.snoop_filter.hit_multi_requests            0                       # Number of requests hitting in the snoop filter with multiple (>1) holders of the requested data.
system.membus.snoop_filter.hit_multi_snoops            0                       # Number of snoops hitting in the snoop filter with multiple (>1) holders of the requested data.
system.membus.snoop_filter.hit_single_requests      4723241                       # Number of requests hitting in the snoop filter with a single holder of the requested data.
system.membus.snoop_filter.hit_single_snoops            0                       # Number of snoops hitting in the snoop filter with a single holder of the requested data.
system.membus.snoop_filter.tot_requests       9518121                       # Total number of requests made to the snoop filter.
system.membus.snoop_filter.tot_snoops               0                       # Total number of snoops made to the snoop filter.
system.switch_cpus0.cc_regfile_reads        130697054                       # number of cc regfile reads
system.switch_cpus0.cc_regfile_writes        97920148                       # number of cc regfile writes
system.switch_cpus0.committedInsts          249965274                       # Number of Instructions Simulated
system.switch_cpus0.committedOps            412659638                       # Number of Ops (including micro ops) Simulated
system.switch_cpus0.cpi                      1.071476                       # CPI: Cycles Per Instruction
system.switch_cpus0.cpi_total                1.071476                       # CPI: Total CPI of All Threads
system.switch_cpus0.fp_regfile_reads        301985087                       # number of floating regfile reads
system.switch_cpus0.fp_regfile_writes       159547508                       # number of floating regfile writes
system.switch_cpus0.idleCycles                  96549                       # Total number of cycles that the CPU has spent unscheduled due to idling
system.switch_cpus0.iew.branchMispredicts        18986                       # Number of branch mispredicts detected at execute
system.switch_cpus0.iew.exec_branches        28472020                       # Number of branches executed
system.switch_cpus0.iew.exec_nop                    0                       # number of nop insts executed
system.switch_cpus0.iew.exec_rate            1.542244                       # Inst execution rate
system.switch_cpus0.iew.exec_refs            96907278                       # number of memory reference insts executed
system.switch_cpus0.iew.exec_stores          27534672                       # Number of stores executed
system.switch_cpus0.iew.exec_swp                    0                       # number of swp insts executed
system.switch_cpus0.iew.iewBlockCycles       53118983                       # Number of cycles IEW is blocking
system.switch_cpus0.iew.iewDispLoadInsts     69416900                       # Number of dispatched load instructions
system.switch_cpus0.iew.iewDispNonSpecInsts            3                       # Number of dispatched non-speculative instructions
system.switch_cpus0.iew.iewDispSquashedInsts          573                       # Number of squashed instructions skipped by dispatch
system.switch_cpus0.iew.iewDispStoreInsts     27591109                       # Number of dispatched store instructions
system.switch_cpus0.iew.iewDispatchedInsts    413368561                       # Number of instructions dispatched to IQ
system.switch_cpus0.iew.iewExecLoadInsts     69372606                       # Number of load instructions executed
system.switch_cpus0.iew.iewExecSquashedInsts        56208                       # Number of squashed instructions skipped in execute
system.switch_cpus0.iew.iewExecutedInsts    413061809                       # Number of executed instructions
system.switch_cpus0.iew.iewIQFullEvents        147475                       # Number of times the IQ has become full, causing a stall
system.switch_cpus0.iew.iewIdleCycles               0                       # Number of cycles IEW is idle
system.switch_cpus0.iew.iewLSQFullEvents     23575677                       # Number of times the LSQ has become full, causing a stall
system.switch_cpus0.iew.iewSquashCycles         20776                       # Number of cycles IEW is squashing
system.switch_cpus0.iew.iewUnblockCycles     23840617                       # Number of cycles IEW is unblocking
system.switch_cpus0.iew.memOrderViolationEvents         2240                       # Number of memory order violations
system.switch_cpus0.iew.predictedNotTakenIncorrect         6310                       # Number of branches that were predicted not taken incorrectly
system.switch_cpus0.iew.predictedTakenIncorrect        12676                       # Number of branches that were predicted taken incorrectly
system.switch_cpus0.iew.wb_consumers        507902898                       # num instructions consuming a value
system.switch_cpus0.iew.wb_count            413019075                       # cumulative count of insts written-back
system.switch_cpus0.iew.wb_fanout            0.602666                       # average fanout of values written-back
system.switch_cpus0.iew.wb_producers        306095900                       # num instructions producing a value
system.switch_cpus0.iew.wb_rate              1.542084                       # insts written-back per cycle
system.switch_cpus0.iew.wb_sent             413037985                       # cumulative count of insts sent to commit
system.switch_cpus0.int_regfile_reads       405424660                       # number of integer regfile reads
system.switch_cpus0.int_regfile_writes      190889386                       # number of integer regfile writes
system.switch_cpus0.ipc                      0.933292                       # IPC: Instructions Per Cycle
system.switch_cpus0.ipc_total                0.933292                       # IPC: Total IPC of All Threads
system.switch_cpus0.iq.FU_type_0::No_OpClass        11922      0.00%      0.00% # Type of FU issued
system.switch_cpus0.iq.FU_type_0::IntAlu    221764178     53.68%     53.68% # Type of FU issued
system.switch_cpus0.iq.FU_type_0::IntMult        17880      0.00%     53.69% # Type of FU issued
system.switch_cpus0.iq.FU_type_0::IntDiv            0      0.00%     53.69% # Type of FU issued
system.switch_cpus0.iq.FU_type_0::FloatAdd     12495105      3.02%     56.71% # Type of FU issued
system.switch_cpus0.iq.FU_type_0::FloatCmp            0      0.00%     56.71% # Type of FU issued
system.switch_cpus0.iq.FU_type_0::FloatCvt            0      0.00%     56.71% # Type of FU issued
system.switch_cpus0.iq.FU_type_0::FloatMult            0      0.00%     56.71% # Type of FU issued
system.switch_cpus0.iq.FU_type_0::FloatMultAcc            0      0.00%     56.71% # Type of FU issued
system.switch_cpus0.iq.FU_type_0::FloatDiv            0      0.00%     56.71% # Type of FU issued
system.switch_cpus0.iq.FU_type_0::FloatMisc            0      0.00%     56.71% # Type of FU issued
system.switch_cpus0.iq.FU_type_0::FloatSqrt            0      0.00%     56.71% # Type of FU issued
system.switch_cpus0.iq.FU_type_0::SimdAdd            0      0.00%     56.71% # Type of FU issued
system.switch_cpus0.iq.FU_type_0::SimdAddAcc            0      0.00%     56.71% # Type of FU issued
system.switch_cpus0.iq.FU_type_0::SimdAlu      8955902      2.17%     58.88% # Type of FU issued
system.switch_cpus0.iq.FU_type_0::SimdCmp            0      0.00%     58.88% # Type of FU issued
system.switch_cpus0.iq.FU_type_0::SimdCvt            0      0.00%     58.88% # Type of FU issued
system.switch_cpus0.iq.FU_type_0::SimdMisc      5330826      1.29%     60.17% # Type of FU issued
system.switch_cpus0.iq.FU_type_0::SimdMult            0      0.00%     60.17% # Type of FU issued
system.switch_cpus0.iq.FU_type_0::SimdMultAcc            0      0.00%     60.17% # Type of FU issued
system.switch_cpus0.iq.FU_type_0::SimdShift            0      0.00%     60.17% # Type of FU issued
system.switch_cpus0.iq.FU_type_0::SimdShiftAcc            0      0.00%     60.17% # Type of FU issued
system.switch_cpus0.iq.FU_type_0::SimdDiv            0      0.00%     60.17% # Type of FU issued
system.switch_cpus0.iq.FU_type_0::SimdSqrt            0      0.00%     60.17% # Type of FU issued
system.switch_cpus0.iq.FU_type_0::SimdFloatAdd     30059794      7.28%     67.45% # Type of FU issued
system.switch_cpus0.iq.FU_type_0::SimdFloatAlu            0      0.00%     67.45% # Type of FU issued
system.switch_cpus0.iq.FU_type_0::SimdFloatCmp       376832      0.09%     67.54% # Type of FU issued
system.switch_cpus0.iq.FU_type_0::SimdFloatCvt      6593228      1.60%     69.13% # Type of FU issued
system.switch_cpus0.iq.FU_type_0::SimdFloatDiv      3034003      0.73%     69.87% # Type of FU issued
system.switch_cpus0.iq.FU_type_0::SimdFloatMisc            0      0.00%     69.87% # Type of FU issued
system.switch_cpus0.iq.FU_type_0::SimdFloatMult     27033341      6.54%     76.41% # Type of FU issued
system.switch_cpus0.iq.FU_type_0::SimdFloatMultAcc            0      0.00%     76.41% # Type of FU issued
system.switch_cpus0.iq.FU_type_0::SimdFloatSqrt       506004      0.12%     76.53% # Type of FU issued
system.switch_cpus0.iq.FU_type_0::SimdReduceAdd            0      0.00%     76.53% # Type of FU issued
system.switch_cpus0.iq.FU_type_0::SimdReduceAlu            0      0.00%     76.53% # Type of FU issued
system.switch_cpus0.iq.FU_type_0::SimdReduceCmp            0      0.00%     76.53% # Type of FU issued
system.switch_cpus0.iq.FU_type_0::SimdFloatReduceAdd            0      0.00%     76.53% # Type of FU issued
system.switch_cpus0.iq.FU_type_0::SimdFloatReduceCmp            0      0.00%     76.53% # Type of FU issued
system.switch_cpus0.iq.FU_type_0::SimdAes            0      0.00%     76.53% # Type of FU issued
system.switch_cpus0.iq.FU_type_0::SimdAesMix            0      0.00%     76.53% # Type of FU issued
system.switch_cpus0.iq.FU_type_0::SimdSha1Hash            0      0.00%     76.53% # Type of FU issued
system.switch_cpus0.iq.FU_type_0::SimdSha1Hash2            0      0.00%     76.53% # Type of FU issued
system.switch_cpus0.iq.FU_type_0::SimdSha256Hash            0      0.00%     76.53% # Type of FU issued
system.switch_cpus0.iq.FU_type_0::SimdSha256Hash2            0      0.00%     76.53% # Type of FU issued
system.switch_cpus0.iq.FU_type_0::SimdShaSigma2            0      0.00%     76.53% # Type of FU issued
system.switch_cpus0.iq.FU_type_0::SimdShaSigma3            0      0.00%     76.53% # Type of FU issued
system.switch_cpus0.iq.FU_type_0::SimdPredAlu            0      0.00%     76.53% # Type of FU issued
system.switch_cpus0.iq.FU_type_0::MemRead     26774604      6.48%     83.02% # Type of FU issued
system.switch_cpus0.iq.FU_type_0::MemWrite     13499044      3.27%     86.28% # Type of FU issued
system.switch_cpus0.iq.FU_type_0::FloatMemRead     42616348     10.32%     96.60% # Type of FU issued
system.switch_cpus0.iq.FU_type_0::FloatMemWrite     14049011      3.40%    100.00% # Type of FU issued
system.switch_cpus0.iq.FU_type_0::IprAccess            0      0.00%    100.00% # Type of FU issued
system.switch_cpus0.iq.FU_type_0::InstPrefetch            0      0.00%    100.00% # Type of FU issued
system.switch_cpus0.iq.FU_type_0::total     413118022                       # Type of FU issued
system.switch_cpus0.iq.fp_alu_accesses      187469884                       # Number of floating point alu accesses
system.switch_cpus0.iq.fp_inst_queue_reads    373024388                       # Number of floating instruction queue reads
system.switch_cpus0.iq.fp_inst_queue_wakeup_accesses    185506787                       # Number of floating instruction queue wakeup accesses
system.switch_cpus0.iq.fp_inst_queue_writes    185961152                       # Number of floating instruction queue writes
system.switch_cpus0.iq.fu_busy_cnt            6578616                       # FU busy when requested
system.switch_cpus0.iq.fu_busy_rate          0.015924                       # FU busy rate (busy events/executed inst)
system.switch_cpus0.iq.fu_full::No_OpClass            0      0.00%      0.00% # attempts to use FU when none available
system.switch_cpus0.iq.fu_full::IntAlu        2870171     43.63%     43.63% # attempts to use FU when none available
system.switch_cpus0.iq.fu_full::IntMult             0      0.00%     43.63% # attempts to use FU when none available
system.switch_cpus0.iq.fu_full::IntDiv              0      0.00%     43.63% # attempts to use FU when none available
system.switch_cpus0.iq.fu_full::FloatAdd          484      0.01%     43.64% # attempts to use FU when none available
system.switch_cpus0.iq.fu_full::FloatCmp            0      0.00%     43.64% # attempts to use FU when none available
system.switch_cpus0.iq.fu_full::FloatCvt            0      0.00%     43.64% # attempts to use FU when none available
system.switch_cpus0.iq.fu_full::FloatMult            0      0.00%     43.64% # attempts to use FU when none available
system.switch_cpus0.iq.fu_full::FloatMultAcc            0      0.00%     43.64% # attempts to use FU when none available
system.switch_cpus0.iq.fu_full::FloatDiv            0      0.00%     43.64% # attempts to use FU when none available
system.switch_cpus0.iq.fu_full::FloatMisc            0      0.00%     43.64% # attempts to use FU when none available
system.switch_cpus0.iq.fu_full::FloatSqrt            0      0.00%     43.64% # attempts to use FU when none available
system.switch_cpus0.iq.fu_full::SimdAdd             0      0.00%     43.64% # attempts to use FU when none available
system.switch_cpus0.iq.fu_full::SimdAddAcc            0      0.00%     43.64% # attempts to use FU when none available
system.switch_cpus0.iq.fu_full::SimdAlu        118137      1.80%     45.43% # attempts to use FU when none available
system.switch_cpus0.iq.fu_full::SimdCmp             0      0.00%     45.43% # attempts to use FU when none available
system.switch_cpus0.iq.fu_full::SimdCvt             0      0.00%     45.43% # attempts to use FU when none available
system.switch_cpus0.iq.fu_full::SimdMisc            0      0.00%     45.43% # attempts to use FU when none available
system.switch_cpus0.iq.fu_full::SimdMult            0      0.00%     45.43% # attempts to use FU when none available
system.switch_cpus0.iq.fu_full::SimdMultAcc            0      0.00%     45.43% # attempts to use FU when none available
system.switch_cpus0.iq.fu_full::SimdShift            0      0.00%     45.43% # attempts to use FU when none available
system.switch_cpus0.iq.fu_full::SimdShiftAcc            0      0.00%     45.43% # attempts to use FU when none available
system.switch_cpus0.iq.fu_full::SimdDiv             0      0.00%     45.43% # attempts to use FU when none available
system.switch_cpus0.iq.fu_full::SimdSqrt            0      0.00%     45.43% # attempts to use FU when none available
system.switch_cpus0.iq.fu_full::SimdFloatAdd       163037      2.48%     47.91% # attempts to use FU when none available
system.switch_cpus0.iq.fu_full::SimdFloatAlu            0      0.00%     47.91% # attempts to use FU when none available
system.switch_cpus0.iq.fu_full::SimdFloatCmp            0      0.00%     47.91% # attempts to use FU when none available
system.switch_cpus0.iq.fu_full::SimdFloatCvt          524      0.01%     47.92% # attempts to use FU when none available
system.switch_cpus0.iq.fu_full::SimdFloatDiv        19367      0.29%     48.21% # attempts to use FU when none available
system.switch_cpus0.iq.fu_full::SimdFloatMisc            0      0.00%     48.21% # attempts to use FU when none available
system.switch_cpus0.iq.fu_full::SimdFloatMult       238556      3.63%     51.84% # attempts to use FU when none available
system.switch_cpus0.iq.fu_full::SimdFloatMultAcc            0      0.00%     51.84% # attempts to use FU when none available
system.switch_cpus0.iq.fu_full::SimdFloatSqrt          594      0.01%     51.85% # attempts to use FU when none available
system.switch_cpus0.iq.fu_full::SimdReduceAdd            0      0.00%     51.85% # attempts to use FU when none available
system.switch_cpus0.iq.fu_full::SimdReduceAlu            0      0.00%     51.85% # attempts to use FU when none available
system.switch_cpus0.iq.fu_full::SimdReduceCmp            0      0.00%     51.85% # attempts to use FU when none available
system.switch_cpus0.iq.fu_full::SimdFloatReduceAdd            0      0.00%     51.85% # attempts to use FU when none available
system.switch_cpus0.iq.fu_full::SimdFloatReduceCmp            0      0.00%     51.85% # attempts to use FU when none available
system.switch_cpus0.iq.fu_full::SimdAes             0      0.00%     51.85% # attempts to use FU when none available
system.switch_cpus0.iq.fu_full::SimdAesMix            0      0.00%     51.85% # attempts to use FU when none available
system.switch_cpus0.iq.fu_full::SimdSha1Hash            0      0.00%     51.85% # attempts to use FU when none available
system.switch_cpus0.iq.fu_full::SimdSha1Hash2            0      0.00%     51.85% # attempts to use FU when none available
system.switch_cpus0.iq.fu_full::SimdSha256Hash            0      0.00%     51.85% # attempts to use FU when none available
system.switch_cpus0.iq.fu_full::SimdSha256Hash2            0      0.00%     51.85% # attempts to use FU when none available
system.switch_cpus0.iq.fu_full::SimdShaSigma2            0      0.00%     51.85% # attempts to use FU when none available
system.switch_cpus0.iq.fu_full::SimdShaSigma3            0      0.00%     51.85% # attempts to use FU when none available
system.switch_cpus0.iq.fu_full::SimdPredAlu            0      0.00%     51.85% # attempts to use FU when none available
system.switch_cpus0.iq.fu_full::MemRead       1293743     19.67%     71.51% # attempts to use FU when none available
system.switch_cpus0.iq.fu_full::MemWrite       547824      8.33%     79.84% # attempts to use FU when none available
system.switch_cpus0.iq.fu_full::FloatMemRead      1034823     15.73%     95.57% # attempts to use FU when none available
system.switch_cpus0.iq.fu_full::FloatMemWrite       291356      4.43%    100.00% # attempts to use FU when none available
system.switch_cpus0.iq.fu_full::IprAccess            0      0.00%    100.00% # attempts to use FU when none available
system.switch_cpus0.iq.fu_full::InstPrefetch            0      0.00%    100.00% # attempts to use FU when none available
system.switch_cpus0.iq.int_alu_accesses     232214832                       # Number of integer alu accesses
system.switch_cpus0.iq.int_inst_queue_reads    727540517                       # Number of integer instruction queue reads
system.switch_cpus0.iq.int_inst_queue_wakeup_accesses    227512288                       # Number of integer instruction queue wakeup accesses
system.switch_cpus0.iq.int_inst_queue_writes    228118475                       # Number of integer instruction queue writes
system.switch_cpus0.iq.iqInstsAdded         413368552                       # Number of instructions added to the IQ (excludes non-spec)
system.switch_cpus0.iq.iqInstsIssued        413118022                       # Number of instructions issued
system.switch_cpus0.iq.iqNonSpecInstsAdded            9                       # Number of non-speculative instructions added to the IQ
system.switch_cpus0.iq.iqSquashedInstsExamined       708849                       # Number of squashed instructions iterated over during squash; mainly for profiling
system.switch_cpus0.iq.iqSquashedInstsIssued        15071                       # Number of squashed instructions issued
system.switch_cpus0.iq.iqSquashedNonSpecRemoved            9                       # Number of squashed non-spec instructions that were removed
system.switch_cpus0.iq.iqSquashedOperandsExamined      1101439                       # Number of squashed operands that are examined and possibly removed from graph
system.switch_cpus0.iq.issued_per_cycle::samples    267735179                       # Number of insts issued each cycle
system.switch_cpus0.iq.issued_per_cycle::mean     1.543010                       # Number of insts issued each cycle
system.switch_cpus0.iq.issued_per_cycle::stdev     2.692422                       # Number of insts issued each cycle
system.switch_cpus0.iq.issued_per_cycle::underflows            0      0.00%      0.00% # Number of insts issued each cycle
system.switch_cpus0.iq.issued_per_cycle::0    189573575     70.81%     70.81% # Number of insts issued each cycle
system.switch_cpus0.iq.issued_per_cycle::1      5941975      2.22%     73.03% # Number of insts issued each cycle
system.switch_cpus0.iq.issued_per_cycle::2      6012966      2.25%     75.27% # Number of insts issued each cycle
system.switch_cpus0.iq.issued_per_cycle::3      6442555      2.41%     77.68% # Number of insts issued each cycle
system.switch_cpus0.iq.issued_per_cycle::4      9591655      3.58%     81.26% # Number of insts issued each cycle
system.switch_cpus0.iq.issued_per_cycle::5     10773530      4.02%     85.28% # Number of insts issued each cycle
system.switch_cpus0.iq.issued_per_cycle::6     10014360      3.74%     89.02% # Number of insts issued each cycle
system.switch_cpus0.iq.issued_per_cycle::7     11574484      4.32%     93.35% # Number of insts issued each cycle
system.switch_cpus0.iq.issued_per_cycle::8     17810079      6.65%    100.00% # Number of insts issued each cycle
system.switch_cpus0.iq.issued_per_cycle::overflows            0      0.00%    100.00% # Number of insts issued each cycle
system.switch_cpus0.iq.issued_per_cycle::min_value            0                       # Number of insts issued each cycle
system.switch_cpus0.iq.issued_per_cycle::max_value            8                       # Number of insts issued each cycle
system.switch_cpus0.iq.issued_per_cycle::total    267735179                       # Number of insts issued each cycle
system.switch_cpus0.iq.rate                  1.542454                       # Inst issue rate
system.switch_cpus0.iq.vec_alu_accesses             0                       # Number of vector alu accesses
system.switch_cpus0.iq.vec_inst_queue_reads            0                       # Number of vector instruction queue reads
system.switch_cpus0.iq.vec_inst_queue_wakeup_accesses            0                       # Number of vector instruction queue wakeup accesses
system.switch_cpus0.iq.vec_inst_queue_writes            0                       # Number of vector instruction queue writes
system.switch_cpus0.memDep0.conflictingLoads      1682893                       # Number of conflicting loads.
system.switch_cpus0.memDep0.conflictingStores      1401758                       # Number of conflicting stores.
system.switch_cpus0.memDep0.insertedLoads     69416900                       # Number of loads inserted to the mem dependence unit.
system.switch_cpus0.memDep0.insertedStores     27591109                       # Number of stores inserted to the mem dependence unit.
system.switch_cpus0.misc_regfile_reads      170945071                       # number of misc regfile reads
system.switch_cpus0.misc_regfile_writes             1                       # number of misc regfile writes
system.switch_cpus0.numCycles               267831728                       # number of cpu cycles simulated
system.switch_cpus0.numWorkItemsCompleted            0                       # number of work items this cpu completed
system.switch_cpus0.numWorkItemsStarted             0                       # number of work items this cpu started
system.switch_cpus0.timesIdled                    363                       # Number of times that the entire CPU went into an idle state and unscheduled itself
system.switch_cpus1.cc_regfile_reads        130715762                       # number of cc regfile reads
system.switch_cpus1.cc_regfile_writes        97931442                       # number of cc regfile writes
system.switch_cpus1.committedInsts          250000001                       # Number of Instructions Simulated
system.switch_cpus1.committedOps            412717558                       # Number of Ops (including micro ops) Simulated
system.switch_cpus1.cpi                      1.071327                       # CPI: Cycles Per Instruction
system.switch_cpus1.cpi_total                1.071327                       # CPI: Total CPI of All Threads
system.switch_cpus1.fp_regfile_reads        302027814                       # number of floating regfile reads
system.switch_cpus1.fp_regfile_writes       159571066                       # number of floating regfile writes
system.switch_cpus1.idleCycles                  92990                       # Total number of cycles that the CPU has spent unscheduled due to idling
system.switch_cpus1.iew.branchMispredicts        18998                       # Number of branch mispredicts detected at execute
system.switch_cpus1.iew.exec_branches        28475689                       # Number of branches executed
system.switch_cpus1.iew.exec_nop                    0                       # number of nop insts executed
system.switch_cpus1.iew.exec_rate            1.542460                       # Inst execution rate
system.switch_cpus1.iew.exec_refs            96922253                       # number of memory reference insts executed
system.switch_cpus1.iew.exec_stores          27538868                       # Number of stores executed
system.switch_cpus1.iew.exec_swp                    0                       # number of swp insts executed
system.switch_cpus1.iew.iewBlockCycles       53080214                       # Number of cycles IEW is blocking
system.switch_cpus1.iew.iewDispLoadInsts     69427662                       # Number of dispatched load instructions
system.switch_cpus1.iew.iewDispNonSpecInsts            3                       # Number of dispatched non-speculative instructions
system.switch_cpus1.iew.iewDispSquashedInsts          593                       # Number of squashed instructions skipped by dispatch
system.switch_cpus1.iew.iewDispStoreInsts     27595355                       # Number of dispatched store instructions
system.switch_cpus1.iew.iewDispatchedInsts    413426701                       # Number of instructions dispatched to IQ
system.switch_cpus1.iew.iewExecLoadInsts     69383385                       # Number of load instructions executed
system.switch_cpus1.iew.iewExecSquashedInsts        56282                       # Number of squashed instructions skipped in execute
system.switch_cpus1.iew.iewExecutedInsts    413119679                       # Number of executed instructions
system.switch_cpus1.iew.iewIQFullEvents        148506                       # Number of times the IQ has become full, causing a stall
system.switch_cpus1.iew.iewIdleCycles               0                       # Number of cycles IEW is idle
system.switch_cpus1.iew.iewLSQFullEvents     23647444                       # Number of times the LSQ has become full, causing a stall
system.switch_cpus1.iew.iewSquashCycles         20779                       # Number of cycles IEW is squashing
system.switch_cpus1.iew.iewUnblockCycles     23913329                       # Number of cycles IEW is unblocking
system.switch_cpus1.iew.memOrderViolationEvents         2242                       # Number of memory order violations
system.switch_cpus1.iew.predictedNotTakenIncorrect         6322                       # Number of branches that were predicted not taken incorrectly
system.switch_cpus1.iew.predictedTakenIncorrect        12676                       # Number of branches that were predicted taken incorrectly
system.switch_cpus1.iew.wb_consumers        507958060                       # num instructions consuming a value
system.switch_cpus1.iew.wb_count            413076835                       # cumulative count of insts written-back
system.switch_cpus1.iew.wb_fanout            0.602680                       # average fanout of values written-back
system.switch_cpus1.iew.wb_producers        306136364                       # num instructions producing a value
system.switch_cpus1.iew.wb_rate              1.542300                       # insts written-back per cycle
system.switch_cpus1.iew.wb_sent             413095847                       # cumulative count of insts sent to commit
system.switch_cpus1.int_regfile_reads       405481687                       # number of integer regfile reads
system.switch_cpus1.int_regfile_writes      190914709                       # number of integer regfile writes
system.switch_cpus1.ipc                      0.933422                       # IPC: Instructions Per Cycle
system.switch_cpus1.ipc_total                0.933422                       # IPC: Total IPC of All Threads
system.switch_cpus1.iq.FU_type_0::No_OpClass        11916      0.00%      0.00% # Type of FU issued
system.switch_cpus1.iq.FU_type_0::IntAlu    221793266     53.68%     53.68% # Type of FU issued
system.switch_cpus1.iq.FU_type_0::IntMult        17896      0.00%     53.69% # Type of FU issued
system.switch_cpus1.iq.FU_type_0::IntDiv            0      0.00%     53.69% # Type of FU issued
system.switch_cpus1.iq.FU_type_0::FloatAdd     12497623      3.02%     56.71% # Type of FU issued
system.switch_cpus1.iq.FU_type_0::FloatCmp            0      0.00%     56.71% # Type of FU issued
system.switch_cpus1.iq.FU_type_0::FloatCvt            0      0.00%     56.71% # Type of FU issued
system.switch_cpus1.iq.FU_type_0::FloatMult            0      0.00%     56.71% # Type of FU issued
system.switch_cpus1.iq.FU_type_0::FloatMultAcc            0      0.00%     56.71% # Type of FU issued
system.switch_cpus1.iq.FU_type_0::FloatDiv            0      0.00%     56.71% # Type of FU issued
system.switch_cpus1.iq.FU_type_0::FloatMisc            0      0.00%     56.71% # Type of FU issued
system.switch_cpus1.iq.FU_type_0::FloatSqrt            0      0.00%     56.71% # Type of FU issued
system.switch_cpus1.iq.FU_type_0::SimdAdd            0      0.00%     56.71% # Type of FU issued
system.switch_cpus1.iq.FU_type_0::SimdAddAcc            0      0.00%     56.71% # Type of FU issued
system.switch_cpus1.iq.FU_type_0::SimdAlu      8957127      2.17%     58.88% # Type of FU issued
system.switch_cpus1.iq.FU_type_0::SimdCmp            0      0.00%     58.88% # Type of FU issued
system.switch_cpus1.iq.FU_type_0::SimdCvt            0      0.00%     58.88% # Type of FU issued
system.switch_cpus1.iq.FU_type_0::SimdMisc      5331539      1.29%     60.17% # Type of FU issued
system.switch_cpus1.iq.FU_type_0::SimdMult            0      0.00%     60.17% # Type of FU issued
system.switch_cpus1.iq.FU_type_0::SimdMultAcc            0      0.00%     60.17% # Type of FU issued
system.switch_cpus1.iq.FU_type_0::SimdShift            0      0.00%     60.17% # Type of FU issued
system.switch_cpus1.iq.FU_type_0::SimdShiftAcc            0      0.00%     60.17% # Type of FU issued
system.switch_cpus1.iq.FU_type_0::SimdDiv            0      0.00%     60.17% # Type of FU issued
system.switch_cpus1.iq.FU_type_0::SimdSqrt            0      0.00%     60.17% # Type of FU issued
system.switch_cpus1.iq.FU_type_0::SimdFloatAdd     30064240      7.28%     67.45% # Type of FU issued
system.switch_cpus1.iq.FU_type_0::SimdFloatAlu            0      0.00%     67.45% # Type of FU issued
system.switch_cpus1.iq.FU_type_0::SimdFloatCmp       376832      0.09%     67.54% # Type of FU issued
system.switch_cpus1.iq.FU_type_0::SimdFloatCvt      6594372      1.60%     69.13% # Type of FU issued
system.switch_cpus1.iq.FU_type_0::SimdFloatDiv      3034043      0.73%     69.87% # Type of FU issued
system.switch_cpus1.iq.FU_type_0::SimdFloatMisc            0      0.00%     69.87% # Type of FU issued
system.switch_cpus1.iq.FU_type_0::SimdFloatMult     27037119      6.54%     76.41% # Type of FU issued
system.switch_cpus1.iq.FU_type_0::SimdFloatMultAcc            0      0.00%     76.41% # Type of FU issued
system.switch_cpus1.iq.FU_type_0::SimdFloatSqrt       506044      0.12%     76.53% # Type of FU issued
system.switch_cpus1.iq.FU_type_0::SimdReduceAdd            0      0.00%     76.53% # Type of FU issued
system.switch_cpus1.iq.FU_type_0::SimdReduceAlu            0      0.00%     76.53% # Type of FU issued
system.switch_cpus1.iq.FU_type_0::SimdReduceCmp            0      0.00%     76.53% # Type of FU issued
system.switch_cpus1.iq.FU_type_0::SimdFloatReduceAdd            0      0.00%     76.53% # Type of FU issued
system.switch_cpus1.iq.FU_type_0::SimdFloatReduceCmp            0      0.00%     76.53% # Type of FU issued
[...]
system.switch_cpus3.commit.numCommittedDist::0    195725895     73.13%     73.13% # Number of insts commited each cycle
system.switch_cpus3.commit.numCommittedDist::1     11963290      4.47%     77.60% # Number of insts commited each cycle
system.switch_cpus3.commit.numCommittedDist::2      4550701      1.70%     79.30% # Number of insts commited each cycle
system.switch_cpus3.commit.numCommittedDist::3      5272876      1.97%     81.27% # Number of insts commited each cycle
system.switch_cpus3.commit.numCommittedDist::4      3247734      1.21%     82.49% # Number of insts commited each cycle
system.switch_cpus3.commit.numCommittedDist::5      2154258      0.80%     83.29% # Number of insts commited each cycle
system.switch_cpus3.commit.numCommittedDist::6      1651372      0.62%     83.91% # Number of insts commited each cycle
system.switch_cpus3.commit.numCommittedDist::7      2398002      0.90%     84.80% # Number of insts commited each cycle
system.switch_cpus3.commit.numCommittedDist::8     40671134     15.20%    100.00% # Number of insts commited each cycle
system.switch_cpus3.commit.numCommittedDist::overflows            0      0.00%    100.00% # Number of insts commited each cycle
system.switch_cpus3.commit.numCommittedDist::min_value            0                       # Number of insts commited each cycle
system.switch_cpus3.commit.numCommittedDist::max_value            8                       # Number of insts commited each cycle
system.switch_cpus3.commit.numCommittedDist::total    267635262                       # Number of insts commited each cycle
system.switch_cpus3.commit.instsCommitted    249994795                       # Number of instructions committed
system.switch_cpus3.commit.opsCommitted     412708864                       # Number of ops (including micro ops) committed
system.switch_cpus3.commit.memRefs           96734151                       # Number of memory references committed
system.switch_cpus3.commit.loads             69245350                       # Number of loads committed
system.switch_cpus3.commit.amos                     0                       # Number of atomic instructions committed
system.switch_cpus3.commit.membars                  0                       # Number of memory barriers committed
system.switch_cpus3.commit.branches          28460571                       # Number of branches committed
system.switch_cpus3.commit.vector                   0                       # Number of committed Vector instructions.
system.switch_cpus3.commit.floating         185442569                       # Number of committed floating point instructions.
system.switch_cpus3.commit.integer          289164637                       # Number of committed integer instructions.
system.switch_cpus3.commit.functionCalls      2180843                       # Number of function calls committed.
system.switch_cpus3.commit.committedInstType_0::No_OpClass        11422      0.00%      0.00% # Class of committed instruction
system.switch_cpus3.commit.committedInstType_0::IntAlu    221578141     53.69%     53.69% # Class of committed instruction
system.switch_cpus3.commit.committedInstType_0::IntMult        17855      0.00%     53.70% # Class of committed instruction
system.switch_cpus3.commit.committedInstType_0::IntDiv            0      0.00%     53.70% # Class of committed instruction
system.switch_cpus3.commit.committedInstType_0::FloatAdd     12496558      3.03%     56.72% # Class of committed instruction
system.switch_cpus3.commit.committedInstType_0::FloatCmp            0      0.00%     56.72% # Class of committed instruction
system.switch_cpus3.commit.committedInstType_0::FloatCvt            0      0.00%     56.72% # Class of committed instruction
system.switch_cpus3.commit.committedInstType_0::FloatMult            0      0.00%     56.72% # Class of committed instruction
system.switch_cpus3.commit.committedInstType_0::FloatMultAcc            0      0.00%     56.72% # Class of committed instruction
system.switch_cpus3.commit.committedInstType_0::FloatDiv            0      0.00%     56.72% # Class of committed instruction
system.switch_cpus3.commit.committedInstType_0::FloatMisc            0      0.00%     56.72% # Class of committed instruction
system.switch_cpus3.commit.committedInstType_0::FloatSqrt            0      0.00%     56.72% # Class of committed instruction
system.switch_cpus3.commit.committedInstType_0::SimdAdd            0      0.00%     56.72% # Class of committed instruction
system.switch_cpus3.commit.committedInstType_0::SimdAddAcc            0      0.00%     56.72% # Class of committed instruction
system.switch_cpus3.commit.committedInstType_0::SimdAlu      8951312      2.17%     58.89% # Class of committed instruction
system.switch_cpus3.commit.committedInstType_0::SimdCmp            0      0.00%     58.89% # Class of committed instruction
system.switch_cpus3.commit.committedInstType_0::SimdCvt            0      0.00%     58.89% # Class of committed instruction
system.switch_cpus3.commit.committedInstType_0::SimdMisc      5330912      1.29%     60.18% # Class of committed instruction
system.switch_cpus3.commit.committedInstType_0::SimdMult            0      0.00%     60.18% # Class of committed instruction
system.switch_cpus3.commit.committedInstType_0::SimdMultAcc            0      0.00%     60.18% # Class of committed instruction
system.switch_cpus3.commit.committedInstType_0::SimdShift            0      0.00%     60.18% # Class of committed instruction
system.switch_cpus3.commit.committedInstType_0::SimdShiftAcc            0      0.00%     60.18% # Class of committed instruction
system.switch_cpus3.commit.committedInstType_0::SimdDiv            0      0.00%     60.18% # Class of committed instruction
system.switch_cpus3.commit.committedInstType_0::SimdSqrt            0      0.00%     60.18% # Class of committed instruction
system.switch_cpus3.commit.committedInstType_0::SimdFloatAdd     30056997      7.28%     67.47% # Class of committed instruction
system.switch_cpus3.commit.committedInstType_0::SimdFloatAlu            0      0.00%     67.47% # Class of committed instruction
system.switch_cpus3.commit.committedInstType_0::SimdFloatCmp       376832      0.09%     67.56% # Class of committed instruction
system.switch_cpus3.commit.committedInstType_0::SimdFloatCvt      6587426      1.60%     69.15% # Class of committed instruction
system.switch_cpus3.commit.committedInstType_0::SimdFloatDiv      3034033      0.74%     69.89% # Class of committed instruction
system.switch_cpus3.commit.committedInstType_0::SimdFloatMisc            0      0.00%     69.89% # Class of committed instruction
system.switch_cpus3.commit.committedInstType_0::SimdFloatMult     27027187      6.55%     76.44% # Class of committed instruction
system.switch_cpus3.commit.committedInstType_0::SimdFloatMultAcc            0      0.00%     76.44% # Class of committed instruction
system.switch_cpus3.commit.committedInstType_0::SimdFloatSqrt       506038      0.12%     76.56% # Class of committed instruction
system.switch_cpus3.commit.committedInstType_0::SimdReduceAdd            0      0.00%     76.56% # Class of committed instruction
system.switch_cpus3.commit.committedInstType_0::SimdReduceAlu            0      0.00%     76.56% # Class of committed instruction
system.switch_cpus3.commit.committedInstType_0::SimdReduceCmp            0      0.00%     76.56% # Class of committed instruction
system.switch_cpus3.commit.committedInstType_0::SimdFloatReduceAdd            0      0.00%     76.56% # Class of committed instruction
system.switch_cpus3.commit.committedInstType_0::SimdFloatReduceCmp            0      0.00%     76.56% # Class of committed instruction
system.switch_cpus3.commit.committedInstType_0::SimdAes            0      0.00%     76.56% # Class of committed instruction
system.switch_cpus3.commit.committedInstType_0::SimdAesMix            0      0.00%     76.56% # Class of committed instruction
system.switch_cpus3.commit.committedInstType_0::SimdSha1Hash            0      0.00%     76.56% # Class of committed instruction
system.switch_cpus3.commit.committedInstType_0::SimdSha1Hash2            0      0.00%     76.56% # Class of committed instruction
system.switch_cpus3.commit.committedInstType_0::SimdSha256Hash            0      0.00%     76.56% # Class of committed instruction
system.switch_cpus3.commit.committedInstType_0::SimdSha256Hash2            0      0.00%     76.56% # Class of committed instruction
system.switch_cpus3.commit.committedInstType_0::SimdShaSigma2            0      0.00%     76.56% # Class of committed instruction
system.switch_cpus3.commit.committedInstType_0::SimdShaSigma3            0      0.00%     76.56% # Class of committed instruction
system.switch_cpus3.commit.committedInstType_0::SimdPredAlu            0      0.00%     76.56% # Class of committed instruction
system.switch_cpus3.commit.committedInstType_0::MemRead     26698235      6.47%     83.03% # Class of committed instruction
system.switch_cpus3.commit.committedInstType_0::MemWrite     13452888      3.26%     86.29% # Class of committed instruction
system.switch_cpus3.commit.committedInstType_0::FloatMemRead     42547115     10.31%     96.60% # Class of committed instruction
system.switch_cpus3.commit.committedInstType_0::FloatMemWrite     14035913      3.40%    100.00% # Class of committed instruction
system.switch_cpus3.commit.committedInstType_0::IprAccess            0      0.00%    100.00% # Class of committed instruction
system.switch_cpus3.commit.committedInstType_0::InstPrefetch            0      0.00%    100.00% # Class of committed instruction
system.switch_cpus3.commit.committedInstType_0::total    412708864                       # Class of committed instruction
system.switch_cpus3.commit.commitEligibleSamples     40671134                       # number cycles where commit BW limit reached
system.switch_cpus3.decode.idleCycles         4123400                       # Number of cycles decode is idle
system.switch_cpus3.decode.blockedCycles    203799772                       # Number of cycles decode is blocked
system.switch_cpus3.decode.runCycles         54251690                       # Number of cycles decode is running
system.switch_cpus3.decode.unblockCycles      5538107                       # Number of cycles decode is unblocking
system.switch_cpus3.decode.squashCycles         20772                       # Number of cycles decode is squashing
system.switch_cpus3.decode.branchResolved      9251184                       # Number of times decode resolved a  branch
system.switch_cpus3.decode.branchMispred          128                       # Number of times decode detected a branch misprediction
system.switch_cpus3.decode.decodedInsts     413716763                       # Number of instructions handled by decode
system.switch_cpus3.decode.squashedInsts          657                       # Number of squashed instructions handled by decode
system.switch_cpus3.dtb.rdAccesses           69381085                       # TLB accesses on read requests
system.switch_cpus3.dtb.wrAccesses           27538250                       # TLB accesses on write requests
system.switch_cpus3.dtb.rdMisses              1092475                       # TLB misses on read requests
system.switch_cpus3.dtb.wrMisses                14186                       # TLB misses on write requests
system.switch_cpus3.dtb.walker.power_state.pwrStateResidencyTicks::UNDEFINED 15740445093705                       # Cumulative time (in ticks) in various power states
system.switch_cpus3.fetch.icacheStallCycles        77191                       # Number of cycles fetch is stalled on an Icache miss
system.switch_cpus3.fetch.insts             250960953                       # Number of instructions fetch has processed
system.switch_cpus3.fetch.branches           28545207                       # Number of branches that fetch encountered
system.switch_cpus3.fetch.predictedBranches     13751562                       # Number of branches that fetch has predicted taken
system.switch_cpus3.fetch.cycles            267635569                       # Number of cycles fetch has run and was not squashing or blocked
system.switch_cpus3.fetch.squashCycles          41798                       # Number of cycles fetch has spent squashing
system.switch_cpus3.fetch.miscStallCycles           13                       # Number of cycles fetch has spent waiting on interrupts,or bad addresses, or out of MSHRs
system.switch_cpus3.fetch.pendingTrapStallCycles           79                       # Number of stall cycles due to pending traps
system.switch_cpus3.fetch.cacheLines         30572584                       # Number of cache lines fetched
system.switch_cpus3.fetch.icacheSquashes          221                       # Number of outstanding Icache misses that were squashed
system.switch_cpus3.fetch.nisnDist::samples    267733751                       # Number of instructions fetched each cycle (Total)
system.switch_cpus3.fetch.nisnDist::mean     1.546732                       # Number of instructions fetched each cycle (Total)
system.switch_cpus3.fetch.nisnDist::stdev     2.961671                       # Number of instructions fetched each cycle (Total)
system.switch_cpus3.fetch.nisnDist::underflows            0      0.00%      0.00% # Number of instructions fetched each cycle (Total)
system.switch_cpus3.fetch.nisnDist::0       201024891     75.08%     75.08% # Number of instructions fetched each cycle (Total)
system.switch_cpus3.fetch.nisnDist::1         5816690      2.17%     77.26% # Number of instructions fetched each cycle (Total)
system.switch_cpus3.fetch.nisnDist::2         2614964      0.98%     78.23% # Number of instructions fetched each cycle (Total)
system.switch_cpus3.fetch.nisnDist::3         6773479      2.53%     80.76% # Number of instructions fetched each cycle (Total)
system.switch_cpus3.fetch.nisnDist::4         2481117      0.93%     81.69% # Number of instructions fetched each cycle (Total)
system.switch_cpus3.fetch.nisnDist::5         3031809      1.13%     82.82% # Number of instructions fetched each cycle (Total)
system.switch_cpus3.fetch.nisnDist::6         3386633      1.26%     84.09% # Number of instructions fetched each cycle (Total)
system.switch_cpus3.fetch.nisnDist::7         3491374      1.30%     85.39% # Number of instructions fetched each cycle (Total)
system.switch_cpus3.fetch.nisnDist::8        39112794     14.61%    100.00% # Number of instructions fetched each cycle (Total)
system.switch_cpus3.fetch.nisnDist::overflows            0      0.00%    100.00% # Number of instructions fetched each cycle (Total)
system.switch_cpus3.fetch.nisnDist::min_value            0                       # Number of instructions fetched each cycle (Total)
system.switch_cpus3.fetch.nisnDist::max_value            8                       # Number of instructions fetched each cycle (Total)
system.switch_cpus3.fetch.nisnDist::total    267733751                       # Number of instructions fetched each cycle (Total)
system.switch_cpus3.fetch.branchRate         0.106579                       # Number of branch fetches per cycle
system.switch_cpus3.fetch.rate               0.937010                       # Number of inst fetches per cycle
system.switch_cpus3.itb.rdAccesses                  0                       # TLB accesses on read requests
system.switch_cpus3.itb.wrAccesses           30572598                       # TLB accesses on write requests
system.switch_cpus3.itb.rdMisses                    0                       # TLB misses on read requests
system.switch_cpus3.itb.wrMisses                   39                       # TLB misses on write requests
system.switch_cpus3.itb.walker.power_state.pwrStateResidencyTicks::UNDEFINED 15740445093705                       # Cumulative time (in ticks) in various power states
system.switch_cpus3.lsq0.forwLoads            4327718                       # Number of loads that had data forwarded from stores
system.switch_cpus3.lsq0.squashedLoads         180528                       # Number of loads squashed
system.switch_cpus3.lsq0.ignoredResponses          144                       # Number of memory responses ignored because the instruction is squashed
system.switch_cpus3.lsq0.memOrderViolation         2239                       # Number of memory ordering violations
system.switch_cpus3.lsq0.squashedStores        106101                       # Number of stores squashed
system.switch_cpus3.lsq0.rescheduledLoads            1                       # Number of loads that were rescheduled
system.switch_cpus3.lsq0.blockedByCache            48                       # Number of times an access to memory failed due to the cache being blocked
system.switch_cpus3.power_state.pwrStateResidencyTicks::OFF  89187975747                       # Cumulative time (in ticks) in various power states
system.switch_cpus3.rename.squashCycles         20772                       # Number of cycles rename is squashing
system.switch_cpus3.rename.idleCycles         6389859                       # Number of cycles rename is idle
system.switch_cpus3.rename.blockCycles       80747949                       # Number of cycles rename is blocking
system.switch_cpus3.rename.serializeStallCycles            0                       # count of cycles rename stalledfor serializing inst
system.switch_cpus3.rename.runCycles         57424814                       # Number of cycles rename is running
system.switch_cpus3.rename.unblockCycles    123150347                       # Number of cycles rename is unblocking
system.switch_cpus3.rename.renamedInsts     413589217                       # Number of instructions processed by rename
system.switch_cpus3.rename.ROBFullEvents       123928                       # Number of times rename has blocked due to ROB full
system.switch_cpus3.rename.IQFullEvents       6935526                       # Number of times rename has blocked due to IQ full
system.switch_cpus3.rename.LQFullEvents      31018972                       # Number of times rename has blocked due to LQ full
system.switch_cpus3.rename.SQFullEvents      87193366                       # Number of times rename has blocked due to SQ full
system.switch_cpus3.rename.renamedOperands    448912054                       # Number of destination operands rename has renamed
system.switch_cpus3.rename.lookups         1010628600                       # Number of register rename lookups that rename has made
system.switch_cpus3.rename.intLookups       406072413                       # Number of integer rename lookups
system.switch_cpus3.rename.fpLookups        302438139                       # Number of floating rename lookups
system.switch_cpus3.rename.committedMaps    448015384                       # Number of HB maps that are committed
system.switch_cpus3.rename.undoneMaps          896552                       # Number of HB maps that are undone due to squashing
system.switch_cpus3.rename.serializing              0                       # count of serializing insts renamed
system.switch_cpus3.rename.tempSerializing            0                       # count of temporary serializing insts renamed
system.switch_cpus3.rename.skidInsts         27886256                       # count of insts added to the skid buffer
system.switch_cpus3.rob.reads               640383052                       # The number of ROB reads
system.switch_cpus3.rob.writes              826936548                       # The number of ROB writes
system.switch_cpus3.thread0.numInsts        249994795                       # Number of Instructions committed
system.switch_cpus3.thread0.numOps          412708864                       # Number of Ops committed
system.switch_cpus3.thread0.numMemRefs              0                       # Number of Memory References
system.voltage_domain.voltage                       1                       # Voltage in Volts

---------- End Simulation Statistics   ----------
