Command line:
./runscript_pride.sh wrf RFM5.BR2.4C 4 2017 --rh_defense --rh_mitigation=RFM --rh_rfm_per_trefi=5 --rh_rfm_blast_radius=2 --rh_rfm_maxacts_per_trefi=79
Global frequency set at 1000000000000 ticks per second
RFM details - rfm_act_threshold: 15, blast_radius: 2, delay_per_rfm: 175000 ps. sample_rate: 0.062500
RH Defense config: RFM, Bus Delay: 0, rfms_per_trefi: 5, rfm_act_threshold: 15, blast_radius: 2,rfm_delay_per_act: 45000 ps.
DRAM config: RowsPerBank: 65536, BanksPerRank: 32, RanksPerChannel: 1
warn: Sockets disabled, not accepting gdb connections
warn: CoherentXBar system.cpu0.mmucache.mmubus has no snooping ports attached!
warn: CoherentXBar system.cpu1.mmucache.mmubus has no snooping ports attached!
warn: CoherentXBar system.cpu2.mmucache.mmubus has no snooping ports attached!
warn: CoherentXBar system.cpu3.mmucache.mmubus has no snooping ports attached!
warn: Checkpoints for file descriptors currently do not work.
warn: Checkpoints for file descriptors currently do not work.
warn: Checkpoints for file descriptors currently do not work.
warn: Checkpoints for file descriptors currently do not work.
gem5 Simulator System.  http://gem5.org
gem5 is copyrighted software; use the --copyright option for details.

gem5 version 20.1.0.5
gem5 compiled Jul 12 2024 12:42:38
gem5 started Aug  1 2024 18:02:14
gem5 executing on a07dda8b130c, pid 250738
command line: /home/user/PrIDE/performance/gem5/build/X86/gem5.opt --outdir=/home/user/PrIDE/performance/gem5/stats/pride_multiprogram_16GBmem_250Mn.SPEC2017.C4/RFM5.BR2.4C/wrf /home/user/PrIDE/performance/gem5/configs/example/se_rq_spec_config_multicore.py --redirects /lib64=/home/utils/gcc-6.2.0/lib64 --benchmark=wrf --benchmark_stdout=/home/user/PrIDE/performance/gem5/stats/pride_multiprogram_16GBmem_250Mn.SPEC2017.C4/RFM5.BR2.4C/wrf/wrf.out --benchmark_stderr=/home/user/PrIDE/performance/gem5/stats/pride_multiprogram_16GBmem_250Mn.SPEC2017.C4/RFM5.BR2.4C/wrf/wrf.err --spec-version=2017 --rh_defense --rh_mitigation=RFM --rh_rfm_per_trefi=5 --rh_rfm_blast_radius=2 --rh_rfm_maxacts_per_trefi=79 --num-cpus=4 --mem-size=16GB --mem-type=DDR5_2400_32x4 --mem-ranks=1 --mem-channels=1 --checkpoint-dir=/home/user/PrIDE/performance/gem5/cpts-DDR5/multiprogram_16GBmem_25Bn.SPEC2017.C4/wrf-1-ref-x86 --checkpoint-restore=25000000000 --at-instruction --cpu-type DerivO3CPU --caches --l2cache --l1d_size=32kB --l1i_size=32kB --l2_size=256kB --l3_size=4MB --l1d_assoc=8 --l1i_assoc=8 --l2_assoc=16 --l3_assoc=16 --cpu-clock=3GHz --sys-clock=3GHz --maxinsts=250000000 --prog-interval=300Hz

info: Standard input is not a terminal, disabling listeners.
Benchmark- 0   wrf
Selected benchmark
--> wrf
CMD: ['/opt/spec2017/benchspec/CPU/521.wrf_r/run/run_base_refrate_gem5_se-m64.0000/wrf_r_base.gem5_se-m64']
CWD: /opt/spec2017/benchspec/CPU/521.wrf_r/run/run_base_refrate_gem5_se-m64.0000/
Process stdout file: /home/user/PrIDE/performance/gem5/stats/pride_multiprogram_16GBmem_250Mn.SPEC2017.C4/RFM5.BR2.4C/wrf/wrf.out_0
Process stderr file: /home/user/PrIDE/performance/gem5/stats/pride_multiprogram_16GBmem_250Mn.SPEC2017.C4/RFM5.BR2.4C/wrf/wrf.err_0
Benchmark- 1   wrf
Selected benchmark
--> wrf
CMD: ['/opt/spec2017/benchspec/CPU/521.wrf_r/run/run_base_refrate_gem5_se-m64.0000/wrf_r_base.gem5_se-m64']
CWD: /opt/spec2017/benchspec/CPU/521.wrf_r/run/run_base_refrate_gem5_se-m64.0000/
Process stdout file: /home/user/PrIDE/performance/gem5/stats/pride_multiprogram_16GBmem_250Mn.SPEC2017.C4/RFM5.BR2.4C/wrf/wrf.out_1
Process stderr file: /home/user/PrIDE/performance/gem5/stats/pride_multiprogram_16GBmem_250Mn.SPEC2017.C4/RFM5.BR2.4C/wrf/wrf.err_1
Benchmark- 2   wrf
Selected benchmark
--> wrf
CMD: ['/opt/spec2017/benchspec/CPU/521.wrf_r/run/run_base_refrate_gem5_se-m64.0000/wrf_r_base.gem5_se-m64']
CWD: /opt/spec2017/benchspec/CPU/521.wrf_r/run/run_base_refrate_gem5_se-m64.0000/
Process stdout file: /home/user/PrIDE/performance/gem5/stats/pride_multiprogram_16GBmem_250Mn.SPEC2017.C4/RFM5.BR2.4C/wrf/wrf.out_2
Process stderr file: /home/user/PrIDE/performance/gem5/stats/pride_multiprogram_16GBmem_250Mn.SPEC2017.C4/RFM5.BR2.4C/wrf/wrf.err_2
Benchmark- 3   wrf
Selected benchmark
--> wrf
CMD: ['/opt/spec2017/benchspec/CPU/521.wrf_r/run/run_base_refrate_gem5_se-m64.0000/wrf_r_base.gem5_se-m64']
CWD: /opt/spec2017/benchspec/CPU/521.wrf_r/run/run_base_refrate_gem5_se-m64.0000/
Process stdout file: /home/user/PrIDE/performance/gem5/stats/pride_multiprogram_16GBmem_250Mn.SPEC2017.C4/RFM5.BR2.4C/wrf/wrf.out_3
Process stderr file: /home/user/PrIDE/performance/gem5/stats/pride_multiprogram_16GBmem_250Mn.SPEC2017.C4/RFM5.BR2.4C/wrf/wrf.err_3
Workload-0: 
['/opt/spec2017/benchspec/CPU/521.wrf_r/run/run_base_refrate_gem5_se-m64.0000/wrf_r_base.gem5_se-m64']
Workload-1: 
['/opt/spec2017/benchspec/CPU/521.wrf_r/run/run_base_refrate_gem5_se-m64.0000/wrf_r_base.gem5_se-m64']
Workload-2: 
['/opt/spec2017/benchspec/CPU/521.wrf_r/run/run_base_refrate_gem5_se-m64.0000/wrf_r_base.gem5_se-m64']
Workload-3: 
['/opt/spec2017/benchspec/CPU/521.wrf_r/run/run_base_refrate_gem5_se-m64.0000/wrf_r_base.gem5_se-m64']
defense_enable:  True  detector:  MG  mitigation:  RFM  threshold:  800
mg_entries:  1700
rfm_maxacts_per_trefi:  79 rfm_per_trefi:  5 rfm_blast_radius:  2
Switch at curTick count:10000
warn: membus.master is deprecated. `master` is now called `mem_side_ports`
warn: No dot file generated. Please install pydot to generate the dot file and pdf.
info: Entering event queue @ 18146314377144.  Starting simulation...
info: Entering event queue @ 18146314387144.  Starting simulation...
warn: PowerState: Already in the requested power state, request ignored
Switched CPUS @ tick 18146314387144
switching cpus
**** REAL SIMULATION ****
info: Entering event queue @ 18146314387467.  Starting simulation...
warn: MOVNTDQ: Ignoring non-temporal hint, modeling as cacheable!
18149647710477: Event_285: system.switch_cpus3 progress event, total committed:27345669, progress insts committed: 27345669, IPC: 02.73183
18149647710477: Event_284: system.switch_cpus2 progress event, total committed:27333589, progress insts committed: 27333589, IPC: 02.73063
18149647710477: Event_283: system.switch_cpus1 progress event, total committed:27298191, progress insts committed: 27298191, IPC: 02.72709
18149647710477: Event_282: system.switch_cpus0 progress event, total committed:27292574, progress insts committed: 27292574, IPC: 02.72653
18152981043810: Event_282: system.switch_cpus0 progress event, total committed:59573620, progress insts committed: 32281046, IPC: 03.22488
18152981043810: Event_283: system.switch_cpus1 progress event, total committed:59553134, progress insts committed: 32254943, IPC: 03.22227
18152981043810: Event_284: system.switch_cpus2 progress event, total committed:59698304, progress insts committed: 32364715, IPC: 03.23324
18152981043810: Event_285: system.switch_cpus3 progress event, total committed:59662531, progress insts committed: 32316862, IPC: 03.22845
18156314377143: Event_285: system.switch_cpus3 progress event, total committed:90853419, progress insts committed: 31190888, IPC: 03.11597
18156314377143: Event_284: system.switch_cpus2 progress event, total committed:90910010, progress insts committed: 31211706, IPC: 03.11805
18156314377143: Event_283: system.switch_cpus1 progress event, total committed:90585634, progress insts committed: 31032500, IPC: 03.10015
18156314377143: Event_282: system.switch_cpus0 progress event, total committed:90640368, progress insts committed: 31066748, IPC: 03.10357
18159647710476: Event_282: system.switch_cpus0 progress event, total committed:123277178, progress insts committed: 32636810, IPC: 03.26042
18159647710476: Event_283: system.switch_cpus1 progress event, total committed:123241124, progress insts committed: 32655490, IPC: 03.26228
18159647710476: Event_284: system.switch_cpus2 progress event, total committed:123761940, progress insts committed: 32851930, IPC: 03.28191
18159647710476: Event_285: system.switch_cpus3 progress event, total committed:123641012, progress insts committed: 32787593, IPC: 03.27548
18162981043809: Event_285: system.switch_cpus3 progress event, total committed:154673256, progress insts committed: 31032244, IPC: 03.10012
18162981043809: Event_284: system.switch_cpus2 progress event, total committed:154843128, progress insts committed: 31081188, IPC: 03.10501
18162981043809: Event_283: system.switch_cpus1 progress event, total committed:154357414, progress insts committed: 31116290, IPC: 03.10852
18162981043809: Event_282: system.switch_cpus0 progress event, total committed:154458164, progress insts committed: 31180986, IPC: 03.11498
18166314377142: Event_282: system.switch_cpus0 progress event, total committed:187518010, progress insts committed: 33059846, IPC: 03.30268
18166314377142: Event_283: system.switch_cpus1 progress event, total committed:187316231, progress insts committed: 32958817, IPC: 03.29259
18166314377142: Event_284: system.switch_cpus2 progress event, total committed:188281941, progress insts committed: 33438813, IPC: 03.34054
18166314377142: Event_285: system.switch_cpus3 progress event, total committed:187969339, progress insts committed: 33296083, IPC: 03.32628
18169647710475: Event_285: system.switch_cpus3 progress event, total committed:220034287, progress insts committed: 32064948, IPC: 03.20329
18169647710475: Event_284: system.switch_cpus2 progress event, total committed:220476010, progress insts committed: 32194069, IPC: 03.21619
18169647710475: Event_283: system.switch_cpus1 progress event, total committed:219504635, progress insts committed: 32188404, IPC: 03.21562
18169647710475: Event_282: system.switch_cpus0 progress event, total committed:219630942, progress insts committed: 32112932, IPC: 03.20808
18172981043808: Event_282: system.switch_cpus0 progress event, total committed:251609965, progress insts committed: 31979023, IPC: 003.1947
18172981043808: Event_283: system.switch_cpus1 progress event, total committed:251497591, progress insts committed: 31992956, IPC: 003.1961
18172981043808: Event_284: system.switch_cpus2 progress event, total committed:253271927, progress insts committed: 32795917, IPC: 03.27631
18172981043808: Event_285: system.switch_cpus3 progress event, total committed:252424671, progress insts committed: 32390384, IPC: 003.2358
18176314377141: Event_285: system.switch_cpus3 progress event, total committed:284920907, progress insts committed: 32496236, IPC: 03.24637
18176314377141: Event_284: system.switch_cpus2 progress event, total committed:285417179, progress insts committed: 32145252, IPC: 03.21131
18176314377141: Event_283: system.switch_cpus1 progress event, total committed:284183073, progress insts committed: 32685482, IPC: 03.26528
18176314377141: Event_282: system.switch_cpus0 progress event, total committed:284360831, progress insts committed: 32750866, IPC: 03.27181
18179647710474: Event_282: system.switch_cpus0 progress event, total committed:315627166, progress insts committed: 31266335, IPC: 03.12351
18179647710474: Event_283: system.switch_cpus1 progress event, total committed:315309289, progress insts committed: 31126216, IPC: 03.10951
18179647710474: Event_284: system.switch_cpus2 progress event, total committed:318015424, progress insts committed: 32598245, IPC: 03.25656
18179647710474: Event_285: system.switch_cpus3 progress event, total committed:317111271, progress insts committed: 32190364, IPC: 03.21582
18182981043807: Event_285: system.switch_cpus3 progress event, total committed:350215524, progress insts committed: 33104253, IPC: 03.30711
18182981043807: Event_284: system.switch_cpus2 progress event, total committed:350592336, progress insts committed: 32576912, IPC: 03.25443
18182981043807: Event_283: system.switch_cpus1 progress event, total committed:348350354, progress insts committed: 33041065, IPC: 003.3008
18182981043807: Event_282: system.switch_cpus0 progress event, total committed:348634610, progress insts committed: 33007444, IPC: 03.29744
18186314377140: Event_282: system.switch_cpus0 progress event, total committed:380286892, progress insts committed: 31652282, IPC: 03.16206
18186314377140: Event_283: system.switch_cpus1 progress event, total committed:380253072, progress insts committed: 31902718, IPC: 03.18708
18186314377140: Event_284: system.switch_cpus2 progress event, total committed:383086867, progress insts committed: 32494531, IPC: 003.2462
18186314377140: Event_285: system.switch_cpus3 progress event, total committed:381814325, progress insts committed: 31598801, IPC: 03.15672
18189647710473: Event_285: system.switch_cpus3 progress event, total committed:415068216, progress insts committed: 33253891, IPC: 03.32206
18189647710473: Event_284: system.switch_cpus2 progress event, total committed:416022965, progress insts committed: 32936098, IPC: 03.29032
18189647710473: Event_283: system.switch_cpus1 progress event, total committed:412919200, progress insts committed: 32666128, IPC: 03.26335
18189647710473: Event_282: system.switch_cpus0 progress event, total committed:413185643, progress insts committed: 32898751, IPC: 03.28659
18192981043806: Event_282: system.switch_cpus0 progress event, total committed:430242217, progress insts committed: 17056574, IPC: 01.70395
18192981043806: Event_283: system.switch_cpus1 progress event, total committed:430213123, progress insts committed: 17293923, IPC: 01.72766
18192981043806: Event_284: system.switch_cpus2 progress event, total committed:430856378, progress insts committed: 14833413, IPC: 01.48186
18192981043806: Event_285: system.switch_cpus3 progress event, total committed:430619768, progress insts committed: 15551552, IPC: 001.5536
18196314377139: Event_285: system.switch_cpus3 progress event, total committed:438124813, progress insts committed: 7505045, IPC: 0.749754
18196314377139: Event_284: system.switch_cpus2 progress event, total committed:438986052, progress insts committed: 8129674, IPC: 0.812154
18196314377139: Event_283: system.switch_cpus1 progress event, total committed:436884517, progress insts committed: 6671394, IPC: 0.666472
18196314377139: Event_282: system.switch_cpus0 progress event, total committed:436982031, progress insts committed: 6739814, IPC: 0.673307
18199647710472: Event_282: system.switch_cpus0 progress event, total committed:454634676, progress insts committed: 17652645, IPC: 001.7635
18199647710472: Event_283: system.switch_cpus1 progress event, total committed:454616491, progress insts committed: 17731974, IPC: 01.77142
18199647710472: Event_284: system.switch_cpus2 progress event, total committed:454887949, progress insts committed: 15901897, IPC: 001.5886
18199647710472: Event_285: system.switch_cpus3 progress event, total committed:454774754, progress insts committed: 16649941, IPC: 01.66333
18202981043805: Event_285: system.switch_cpus3 progress event, total committed:455782869, progress insts committed: 1008115, IPC: 0.100711
18202981043805: Event_284: system.switch_cpus2 progress event, total committed:455888680, progress insts committed: 1000731, IPC: 0.099973
18202981043805: Event_283: system.switch_cpus1 progress event, total committed:455619672, progress insts committed: 1003181, IPC: 0.100218
18202981043805: Event_282: system.switch_cpus0 progress event, total committed:455637384, progress insts committed: 1002708, IPC: 0.100171
Exiting @ tick 18204779361969 because a thread reached the max instruction count
