
---------- Begin Simulation Statistics ----------
final_tick                               18204624786699                       # Number of ticks from beginning of simulation (restored from checkpoints and never reset)
host_inst_rate                                 115528                       # Simulator instruction rate (inst/s)
host_mem_usage                               17498824                       # Number of bytes of host memory used
host_op_rate                                   210927                       # Simulator op (including micro ops) rate (op/s)
host_seconds                                  8652.21                       # Real time elapsed on the host
host_tick_rate                                6739368                       # Simulator tick rate (ticks/s)
sim_freq                                 1000000000000                       # Frequency of simulated ticks
sim_insts                                   999569485                       # Number of instructions simulated
sim_ops                                    1824988539                       # Number of ops (including micro ops) simulated
sim_seconds                                  0.058310                       # Number of seconds simulated
sim_ticks                                 58310415216                       # Number of ticks simulated
system.cpu0.Branches                                3                       # Number of branches fetched
system.cpu0.committedInsts                         12                       # Number of instructions committed
system.cpu0.committedOps                           24                       # Number of ops (including micro ops) committed
system.cpu0.idle_fraction                           0                       # Percentage of idle cycles
system.cpu0.l2bus.snoop_filter.hit_multi_requests          273                       # Number of requests hitting in the snoop filter with multiple (>1) holders of the requested data.
system.cpu0.l2bus.snoop_filter.hit_multi_snoops            0                       # Number of snoops hitting in the snoop filter with multiple (>1) holders of the requested data.
system.cpu0.l2bus.snoop_filter.hit_single_requests      1776467                       # Number of requests hitting in the snoop filter with a single holder of the requested data.
system.cpu0.l2bus.snoop_filter.hit_single_snoops        24513                       # Number of snoops hitting in the snoop filter with a single holder of the requested data.
system.cpu0.l2bus.snoop_filter.tot_requests      3441675                       # Total number of requests made to the snoop filter.
system.cpu0.l2bus.snoop_filter.tot_snoops        24513                       # Total number of snoops made to the snoop filter.
system.cpu0.mmucache.mmubus.snoop_filter.hit_multi_requests            0                       # Number of requests hitting in the snoop filter with multiple (>1) holders of the requested data.
system.cpu0.mmucache.mmubus.snoop_filter.hit_multi_snoops            0                       # Number of snoops hitting in the snoop filter with multiple (>1) holders of the requested data.
system.cpu0.mmucache.mmubus.snoop_filter.hit_single_requests            0                       # Number of requests hitting in the snoop filter with a single holder of the requested data.
system.cpu0.mmucache.mmubus.snoop_filter.hit_single_snoops            0                       # Number of snoops hitting in the snoop filter with a single holder of the requested data.
system.cpu0.mmucache.mmubus.snoop_filter.tot_requests            0                       # Total number of requests made to the snoop filter.
system.cpu0.mmucache.mmubus.snoop_filter.tot_snoops            0                       # Total number of snoops made to the snoop filter.
system.cpu0.not_idle_fraction                       1                       # Percentage of non-idle cycles
system.cpu0.numCycles                              30                       # number of cpu cycles simulated
system.cpu0.numWorkItemsCompleted                   0                       # number of work items this cpu completed
system.cpu0.numWorkItemsStarted                     0                       # number of work items this cpu started
system.cpu0.num_busy_cycles                        30                       # Number of busy cycles
system.cpu0.num_cc_register_reads                  20                       # number of times the CC registers were read
system.cpu0.num_cc_register_writes                  6                       # number of times the CC registers were written
system.cpu0.num_conditional_control_insts            3                       # number of instructions that are conditional controls
system.cpu0.num_fp_alu_accesses                    14                       # Number of float alu accesses
system.cpu0.num_fp_insts                           14                       # number of float instructions
system.cpu0.num_fp_register_reads                  18                       # number of times the floating registers were read
system.cpu0.num_fp_register_writes                 12                       # number of times the floating registers were written
system.cpu0.num_func_calls                          0                       # number of times a function call or return occured
system.cpu0.num_idle_cycles                         0                       # Number of idle cycles
system.cpu0.num_int_alu_accesses                   12                       # Number of integer alu accesses
system.cpu0.num_int_insts                          12                       # number of integer instructions
system.cpu0.num_int_register_reads                 20                       # number of times the integer registers were read
system.cpu0.num_int_register_writes                 7                       # number of times the integer registers were written
system.cpu0.num_load_insts                          2                       # Number of load instructions
system.cpu0.num_mem_refs                            2                       # number of memory refs
system.cpu0.num_store_insts                         0                       # Number of store instructions
system.cpu0.num_vec_alu_accesses                    0                       # Number of vector alu accesses
system.cpu0.num_vec_insts                           0                       # number of vector instructions
system.cpu0.num_vec_register_reads                  0                       # number of times the vector registers were read
system.cpu0.num_vec_register_writes                 0                       # number of times the vector registers were written
system.cpu0.op_class::No_OpClass                    0      0.00%      0.00% # Class of executed instruction
system.cpu0.op_class::IntAlu                       14     58.33%     58.33% # Class of executed instruction
system.cpu0.op_class::IntMult                       0      0.00%     58.33% # Class of executed instruction
system.cpu0.op_class::IntDiv                        0      0.00%     58.33% # Class of executed instruction
system.cpu0.op_class::FloatAdd                      4     16.67%     75.00% # Class of executed instruction
system.cpu0.op_class::FloatCmp                      0      0.00%     75.00% # Class of executed instruction
system.cpu0.op_class::FloatCvt                      0      0.00%     75.00% # Class of executed instruction
system.cpu0.op_class::FloatMult                     0      0.00%     75.00% # Class of executed instruction
system.cpu0.op_class::FloatMultAcc                  0      0.00%     75.00% # Class of executed instruction
system.cpu0.op_class::FloatDiv                      0      0.00%     75.00% # Class of executed instruction
system.cpu0.op_class::FloatMisc                     0      0.00%     75.00% # Class of executed instruction
system.cpu0.op_class::FloatSqrt                     0      0.00%     75.00% # Class of executed instruction
system.cpu0.op_class::SimdAdd                       0      0.00%     75.00% # Class of executed instruction
system.cpu0.op_class::SimdAddAcc                    0      0.00%     75.00% # Class of executed instruction
system.cpu0.op_class::SimdAlu                       0      0.00%     75.00% # Class of executed instruction
system.cpu0.op_class::SimdCmp                       0      0.00%     75.00% # Class of executed instruction
system.cpu0.op_class::SimdCvt                       0      0.00%     75.00% # Class of executed instruction
system.cpu0.op_class::SimdMisc                      0      0.00%     75.00% # Class of executed instruction
system.cpu0.op_class::SimdMult                      0      0.00%     75.00% # Class of executed instruction
system.cpu0.op_class::SimdMultAcc                   0      0.00%     75.00% # Class of executed instruction
system.cpu0.op_class::SimdShift                     0      0.00%     75.00% # Class of executed instruction
system.cpu0.op_class::SimdShiftAcc                  0      0.00%     75.00% # Class of executed instruction
system.cpu0.op_class::SimdDiv                       0      0.00%     75.00% # Class of executed instruction
system.cpu0.op_class::SimdSqrt                      0      0.00%     75.00% # Class of executed instruction
system.cpu0.op_class::SimdFloatAdd                  1      4.17%     79.17% # Class of executed instruction
system.cpu0.op_class::SimdFloatAlu                  0      0.00%     79.17% # Class of executed instruction
system.cpu0.op_class::SimdFloatCmp                  0      0.00%     79.17% # Class of executed instruction
system.cpu0.op_class::SimdFloatCvt                  2      8.33%     87.50% # Class of executed instruction
system.cpu0.op_class::SimdFloatDiv                  0      0.00%     87.50% # Class of executed instruction
system.cpu0.op_class::SimdFloatMisc                 0      0.00%     87.50% # Class of executed instruction
system.cpu0.op_class::SimdFloatMult                 1      4.17%     91.67% # Class of executed instruction
system.cpu0.op_class::SimdFloatMultAcc              0      0.00%     91.67% # Class of executed instruction
system.cpu0.op_class::SimdFloatSqrt                 0      0.00%     91.67% # Class of executed instruction
system.cpu0.op_class::SimdReduceAdd                 0      0.00%     91.67% # Class of executed instruction
system.cpu0.op_class::SimdReduceAlu                 0      0.00%     91.67% # Class of executed instruction
system.cpu0.op_class::SimdReduceCmp                 0      0.00%     91.67% # Class of executed instruction
system.cpu0.op_class::SimdFloatReduceAdd            0      0.00%     91.67% # Class of executed instruction
system.cpu0.op_class::SimdFloatReduceCmp            0      0.00%     91.67% # Class of executed instruction
system.cpu0.op_class::SimdAes                       0      0.00%     91.67% # Class of executed instruction
system.cpu0.op_class::SimdAesMix                    0      0.00%     91.67% # Class of executed instruction
system.cpu0.op_class::SimdSha1Hash                  0      0.00%     91.67% # Class of executed instruction
system.cpu0.op_class::SimdSha1Hash2                 0      0.00%     91.67% # Class of executed instruction
system.cpu0.op_class::SimdSha256Hash                0      0.00%     91.67% # Class of executed instruction
system.cpu0.op_class::SimdSha256Hash2               0      0.00%     91.67% # Class of executed instruction
system.cpu0.op_class::SimdShaSigma2                 0      0.00%     91.67% # Class of executed instruction
system.cpu0.op_class::SimdShaSigma3                 0      0.00%     91.67% # Class of executed instruction
system.cpu0.op_class::SimdPredAlu                   0      0.00%     91.67% # Class of executed instruction
system.cpu0.op_class::MemRead                       0      0.00%     91.67% # Class of executed instruction
system.cpu0.op_class::MemWrite                      0      0.00%     91.67% # Class of executed instruction
system.cpu0.op_class::FloatMemRead                  2      8.33%    100.00% # Class of executed instruction
system.cpu0.op_class::FloatMemWrite                 0      0.00%    100.00% # Class of executed instruction
system.cpu0.op_class::IprAccess                     0      0.00%    100.00% # Class of executed instruction
system.cpu0.op_class::InstPrefetch                  0      0.00%    100.00% # Class of executed instruction
system.cpu0.op_class::total                        24                       # Class of executed instruction
system.cpu0.workload.numSyscalls                    0                       # Number of system calls
system.cpu1.Branches                                3                       # Number of branches fetched
system.cpu1.committedInsts                         12                       # Number of instructions committed
system.cpu1.committedOps                           24                       # Number of ops (including micro ops) committed
system.cpu1.idle_fraction                           0                       # Percentage of idle cycles
system.cpu1.l2bus.snoop_filter.hit_multi_requests          436                       # Number of requests hitting in the snoop filter with multiple (>1) holders of the requested data.
system.cpu1.l2bus.snoop_filter.hit_multi_snoops            0                       # Number of snoops hitting in the snoop filter with multiple (>1) holders of the requested data.
system.cpu1.l2bus.snoop_filter.hit_single_requests      1772935                       # Number of requests hitting in the snoop filter with a single holder of the requested data.
system.cpu1.l2bus.snoop_filter.hit_single_snoops        24630                       # Number of snoops hitting in the snoop filter with a single holder of the requested data.
system.cpu1.l2bus.snoop_filter.tot_requests      3435373                       # Total number of requests made to the snoop filter.
system.cpu1.l2bus.snoop_filter.tot_snoops        24630                       # Total number of snoops made to the snoop filter.
system.cpu1.mmucache.mmubus.snoop_filter.hit_multi_requests            0                       # Number of requests hitting in the snoop filter with multiple (>1) holders of the requested data.
system.cpu1.mmucache.mmubus.snoop_filter.hit_multi_snoops            0                       # Number of snoops hitting in the snoop filter with multiple (>1) holders of the requested data.
system.cpu1.mmucache.mmubus.snoop_filter.hit_single_requests            0                       # Number of requests hitting in the snoop filter with a single holder of the requested data.
system.cpu1.mmucache.mmubus.snoop_filter.hit_single_snoops            0                       # Number of snoops hitting in the snoop filter with a single holder of the requested data.
system.cpu1.mmucache.mmubus.snoop_filter.tot_requests            0                       # Total number of requests made to the snoop filter.
system.cpu1.mmucache.mmubus.snoop_filter.tot_snoops            0                       # Total number of snoops made to the snoop filter.
system.cpu1.not_idle_fraction                       1                       # Percentage of non-idle cycles
system.cpu1.numCycles                              30                       # number of cpu cycles simulated
system.cpu1.numWorkItemsCompleted                   0                       # number of work items this cpu completed
system.cpu1.numWorkItemsStarted                     0                       # number of work items this cpu started
system.cpu1.num_busy_cycles                        30                       # Number of busy cycles
system.cpu1.num_cc_register_reads                  20                       # number of times the CC registers were read
system.cpu1.num_cc_register_writes                  6                       # number of times the CC registers were written
system.cpu1.num_conditional_control_insts            3                       # number of instructions that are conditional controls
system.cpu1.num_fp_alu_accesses                    14                       # Number of float alu accesses
system.cpu1.num_fp_insts                           14                       # number of float instructions
system.cpu1.num_fp_register_reads                  18                       # number of times the floating registers were read
system.cpu1.num_fp_register_writes                 12                       # number of times the floating registers were written
system.cpu1.num_func_calls                          0                       # number of times a function call or return occured
system.cpu1.num_idle_cycles                         0                       # Number of idle cycles
system.cpu1.num_int_alu_accesses                   12                       # Number of integer alu accesses
system.cpu1.num_int_insts                          12                       # number of integer instructions
system.cpu1.num_int_register_reads                 20                       # number of times the integer registers were read
system.cpu1.num_int_register_writes                 7                       # number of times the integer registers were written
system.cpu1.num_load_insts                          2                       # Number of load instructions
system.cpu1.num_mem_refs                            2                       # number of memory refs
system.cpu1.num_store_insts                         0                       # Number of store instructions
system.cpu1.num_vec_alu_accesses                    0                       # Number of vector alu accesses
system.cpu1.num_vec_insts                           0                       # number of vector instructions
system.cpu1.num_vec_register_reads                  0                       # number of times the vector registers were read
system.cpu1.num_vec_register_writes                 0                       # number of times the vector registers were written
system.cpu1.op_class::No_OpClass                    0      0.00%      0.00% # Class of executed instruction
system.cpu1.op_class::IntAlu                       14     58.33%     58.33% # Class of executed instruction
system.cpu1.op_class::IntMult                       0      0.00%     58.33% # Class of executed instruction
system.cpu1.op_class::IntDiv                        0      0.00%     58.33% # Class of executed instruction
system.cpu1.op_class::FloatAdd                      4     16.67%     75.00% # Class of executed instruction
system.cpu1.op_class::FloatCmp                      0      0.00%     75.00% # Class of executed instruction
system.cpu1.op_class::FloatCvt                      0      0.00%     75.00% # Class of executed instruction
system.cpu1.op_class::FloatMult                     0      0.00%     75.00% # Class of executed instruction
system.cpu1.op_class::FloatMultAcc                  0      0.00%     75.00% # Class of executed instruction
system.cpu1.op_class::FloatDiv                      0      0.00%     75.00% # Class of executed instruction
system.cpu1.op_class::FloatMisc                     0      0.00%     75.00% # Class of executed instruction
system.cpu1.op_class::FloatSqrt                     0      0.00%     75.00% # Class of executed instruction
system.cpu1.op_class::SimdAdd                       0      0.00%     75.00% # Class of executed instruction
system.cpu1.op_class::SimdAddAcc                    0      0.00%     75.00% # Class of executed instruction
system.cpu1.op_class::SimdAlu                       0      0.00%     75.00% # Class of executed instruction
system.cpu1.op_class::SimdCmp                       0      0.00%     75.00% # Class of executed instruction
system.cpu1.op_class::SimdCvt                       0      0.00%     75.00% # Class of executed instruction
system.cpu1.op_class::SimdMisc                      0      0.00%     75.00% # Class of executed instruction
system.cpu1.op_class::SimdMult                      0      0.00%     75.00% # Class of executed instruction
system.cpu1.op_class::SimdMultAcc                   0      0.00%     75.00% # Class of executed instruction
system.cpu1.op_class::SimdShift                     0      0.00%     75.00% # Class of executed instruction
system.cpu1.op_class::SimdShiftAcc                  0      0.00%     75.00% # Class of executed instruction
system.cpu1.op_class::SimdDiv                       0      0.00%     75.00% # Class of executed instruction
system.cpu1.op_class::SimdSqrt                      0      0.00%     75.00% # Class of executed instruction
system.cpu1.op_class::SimdFloatAdd                  1      4.17%     79.17% # Class of executed instruction
system.cpu1.op_class::SimdFloatAlu                  0      0.00%     79.17% # Class of executed instruction
system.cpu1.op_class::SimdFloatCmp                  0      0.00%     79.17% # Class of executed instruction
system.cpu1.op_class::SimdFloatCvt                  2      8.33%     87.50% # Class of executed instruction
system.cpu1.op_class::SimdFloatDiv                  0      0.00%     87.50% # Class of executed instruction
system.cpu1.op_class::SimdFloatMisc                 0      0.00%     87.50% # Class of executed instruction
system.cpu1.op_class::SimdFloatMult                 1      4.17%     91.67% # Class of executed instruction
system.cpu1.op_class::SimdFloatMultAcc              0      0.00%     91.67% # Class of executed instruction
system.cpu1.op_class::SimdFloatSqrt                 0      0.00%     91.67% # Class of executed instruction
system.cpu1.op_class::SimdReduceAdd                 0      0.00%     91.67% # Class of executed instruction
system.cpu1.op_class::SimdReduceAlu                 0      0.00%     91.67% # Class of executed instruction
system.cpu1.op_class::SimdReduceCmp                 0      0.00%     91.67% # Class of executed instruction
system.cpu1.op_class::SimdFloatReduceAdd            0      0.00%     91.67% # Class of executed instruction
system.cpu1.op_class::SimdFloatReduceCmp            0      0.00%     91.67% # Class of executed instruction
system.cpu1.op_class::SimdAes                       0      0.00%     91.67% # Class of executed instruction
system.cpu1.op_class::SimdAesMix                    0      0.00%     91.67% # Class of executed instruction
system.cpu1.op_class::SimdSha1Hash                  0      0.00%     91.67% # Class of executed instruction
system.cpu1.op_class::SimdSha1Hash2                 0      0.00%     91.67% # Class of executed instruction
system.cpu1.op_class::SimdSha256Hash                0      0.00%     91.67% # Class of executed instruction
system.cpu1.op_class::SimdSha256Hash2               0      0.00%     91.67% # Class of executed instruction
system.cpu1.op_class::SimdShaSigma2                 0      0.00%     91.67% # Class of executed instruction
system.cpu1.op_class::SimdShaSigma3                 0      0.00%     91.67% # Class of executed instruction
system.cpu1.op_class::SimdPredAlu                   0      0.00%     91.67% # Class of executed instruction
system.cpu1.op_class::MemRead                       0      0.00%     91.67% # Class of executed instruction
system.cpu1.op_class::MemWrite                      0      0.00%     91.67% # Class of executed instruction
system.cpu1.op_class::FloatMemRead                  2      8.33%    100.00% # Class of executed instruction
system.cpu1.op_class::FloatMemWrite                 0      0.00%    100.00% # Class of executed instruction
system.cpu1.op_class::IprAccess                     0      0.00%    100.00% # Class of executed instruction
system.cpu1.op_class::InstPrefetch                  0      0.00%    100.00% # Class of executed instruction
system.cpu1.op_class::total                        24                       # Class of executed instruction
system.cpu1.workload.numSyscalls                    0                       # Number of system calls
system.cpu2.Branches                                3                       # Number of branches fetched
system.cpu2.committedInsts                         12                       # Number of instructions committed
system.cpu2.committedOps                           24                       # Number of ops (including micro ops) committed
system.cpu2.idle_fraction                           0                       # Percentage of idle cycles
system.cpu2.l2bus.snoop_filter.hit_multi_requests          291                       # Number of requests hitting in the snoop filter with multiple (>1) holders of the requested data.
system.cpu2.l2bus.snoop_filter.hit_multi_snoops            0                       # Number of snoops hitting in the snoop filter with multiple (>1) holders of the requested data.
system.cpu2.l2bus.snoop_filter.hit_single_requests      1780100                       # Number of requests hitting in the snoop filter with a single holder of the requested data.
system.cpu2.l2bus.snoop_filter.hit_single_snoops        22155                       # Number of snoops hitting in the snoop filter with a single holder of the requested data.
system.cpu2.l2bus.snoop_filter.tot_requests      3449885                       # Total number of requests made to the snoop filter.
system.cpu2.l2bus.snoop_filter.tot_snoops        22155                       # Total number of snoops made to the snoop filter.
system.cpu2.mmucache.mmubus.snoop_filter.hit_multi_requests            0                       # Number of requests hitting in the snoop filter with multiple (>1) holders of the requested data.
system.cpu2.mmucache.mmubus.snoop_filter.hit_multi_snoops            0                       # Number of snoops hitting in the snoop filter with multiple (>1) holders of the requested data.
system.cpu2.mmucache.mmubus.snoop_filter.hit_single_requests            0                       # Number of requests hitting in the snoop filter with a single holder of the requested data.
system.cpu2.mmucache.mmubus.snoop_filter.hit_single_snoops            0                       # Number of snoops hitting in the snoop filter with a single holder of the requested data.
system.cpu2.mmucache.mmubus.snoop_filter.tot_requests            0                       # Total number of requests made to the snoop filter.
system.cpu2.mmucache.mmubus.snoop_filter.tot_snoops            0                       # Total number of snoops made to the snoop filter.
system.cpu2.not_idle_fraction                       1                       # Percentage of non-idle cycles
system.cpu2.numCycles                              30                       # number of cpu cycles simulated
system.cpu2.numWorkItemsCompleted                   0                       # number of work items this cpu completed
system.cpu2.numWorkItemsStarted                     0                       # number of work items this cpu started
system.cpu2.num_busy_cycles                        30                       # Number of busy cycles
system.cpu2.num_cc_register_reads                  20                       # number of times the CC registers were read
system.cpu2.num_cc_register_writes                  6                       # number of times the CC registers were written
system.cpu2.num_conditional_control_insts            3                       # number of instructions that are conditional controls
system.cpu2.num_fp_alu_accesses                    14                       # Number of float alu accesses
system.cpu2.num_fp_insts                           14                       # number of float instructions
system.cpu2.num_fp_register_reads                  18                       # number of times the floating registers were read
system.cpu2.num_fp_register_writes                 12                       # number of times the floating registers were written
system.cpu2.num_func_calls                          0                       # number of times a function call or return occured
system.cpu2.num_idle_cycles                         0                       # Number of idle cycles
system.cpu2.num_int_alu_accesses                   12                       # Number of integer alu accesses
system.cpu2.num_int_insts                          12                       # number of integer instructions
system.cpu2.num_int_register_reads                 20                       # number of times the integer registers were read
system.cpu2.num_int_register_writes                 7                       # number of times the integer registers were written
system.cpu2.num_load_insts                          2                       # Number of load instructions
system.cpu2.num_mem_refs                            2                       # number of memory refs
system.cpu2.num_store_insts                         0                       # Number of store instructions
system.cpu2.num_vec_alu_accesses                    0                       # Number of vector alu accesses
system.cpu2.num_vec_insts                           0                       # number of vector instructions
system.cpu2.num_vec_register_reads                  0                       # number of times the vector registers were read
system.cpu2.num_vec_register_writes                 0                       # number of times the vector registers were written
system.cpu2.op_class::No_OpClass                    0      0.00%      0.00% # Class of executed instruction
system.cpu2.op_class::IntAlu                       14     58.33%     58.33% # Class of executed instruction
system.cpu2.op_class::IntMult                       0      0.00%     58.33% # Class of executed instruction
system.cpu2.op_class::IntDiv                        0      0.00%     58.33% # Class of executed instruction
system.cpu2.op_class::FloatAdd                      4     16.67%     75.00% # Class of executed instruction
system.cpu2.op_class::FloatCmp                      0      0.00%     75.00% # Class of executed instruction
system.cpu2.op_class::FloatCvt                      0      0.00%     75.00% # Class of executed instruction
system.cpu2.op_class::FloatMult                     0      0.00%     75.00% # Class of executed instruction
system.cpu2.op_class::FloatMultAcc                  0      0.00%     75.00% # Class of executed instruction
system.cpu2.op_class::FloatDiv                      0      0.00%     75.00% # Class of executed instruction
system.cpu2.op_class::FloatMisc                     0      0.00%     75.00% # Class of executed instruction
system.cpu2.op_class::FloatSqrt                     0      0.00%     75.00% # Class of executed instruction
system.cpu2.op_class::SimdAdd                       0      0.00%     75.00% # Class of executed instruction
system.cpu2.op_class::SimdAddAcc                    0      0.00%     75.00% # Class of executed instruction
system.cpu2.op_class::SimdAlu                       0      0.00%     75.00% # Class of executed instruction
system.cpu2.op_class::SimdCmp                       0      0.00%     75.00% # Class of executed instruction
system.cpu2.op_class::SimdCvt                       0      0.00%     75.00% # Class of executed instruction
system.cpu2.op_class::SimdMisc                      0      0.00%     75.00% # Class of executed instruction
system.cpu2.op_class::SimdMult                      0      0.00%     75.00% # Class of executed instruction
system.cpu2.op_class::SimdMultAcc                   0      0.00%     75.00% # Class of executed instruction
system.cpu2.op_class::SimdShift                     0      0.00%     75.00% # Class of executed instruction
system.cpu2.op_class::SimdShiftAcc                  0      0.00%     75.00% # Class of executed instruction
system.cpu2.op_class::SimdDiv                       0      0.00%     75.00% # Class of executed instruction
system.cpu2.op_class::SimdSqrt                      0      0.00%     75.00% # Class of executed instruction
system.cpu2.op_class::SimdFloatAdd                  1      4.17%     79.17% # Class of executed instruction
system.cpu2.op_class::SimdFloatAlu                  0      0.00%     79.17% # Class of executed instruction
system.cpu2.op_class::SimdFloatCmp                  0      0.00%     79.17% # Class of executed instruction
system.cpu2.op_class::SimdFloatCvt                  2      8.33%     87.50% # Class of executed instruction
system.cpu2.op_class::SimdFloatDiv                  0      0.00%     87.50% # Class of executed instruction
system.cpu2.op_class::SimdFloatMisc                 0      0.00%     87.50% # Class of executed instruction
system.cpu2.op_class::SimdFloatMult                 1      4.17%     91.67% # Class of executed instruction
system.cpu2.op_class::SimdFloatMultAcc              0      0.00%     91.67% # Class of executed instruction
system.cpu2.op_class::SimdFloatSqrt                 0      0.00%     91.67% # Class of executed instruction
system.cpu2.op_class::SimdReduceAdd                 0      0.00%     91.67% # Class of executed instruction
system.cpu2.op_class::SimdReduceAlu                 0      0.00%     91.67% # Class of executed instruction
system.cpu2.op_class::SimdReduceCmp                 0      0.00%     91.67% # Class of executed instruction
system.cpu2.op_class::SimdFloatReduceAdd            0      0.00%     91.67% # Class of executed instruction
system.cpu2.op_class::SimdFloatReduceCmp            0      0.00%     91.67% # Class of executed instruction
system.cpu2.op_class::SimdAes                       0      0.00%     91.67% # Class of executed instruction
system.cpu2.op_class::SimdAesMix                    0      0.00%     91.67% # Class of executed instruction
system.cpu2.op_class::SimdSha1Hash                  0      0.00%     91.67% # Class of executed instruction
system.cpu2.op_class::SimdSha1Hash2                 0      0.00%     91.67% # Class of executed instruction
system.cpu2.op_class::SimdSha256Hash                0      0.00%     91.67% # Class of executed instruction
system.cpu2.op_class::SimdSha256Hash2               0      0.00%     91.67% # Class of executed instruction
system.cpu2.op_class::SimdShaSigma2                 0      0.00%     91.67% # Class of executed instruction
system.cpu2.op_class::SimdShaSigma3                 0      0.00%     91.67% # Class of executed instruction
system.cpu2.op_class::SimdPredAlu                   0      0.00%     91.67% # Class of executed instruction
system.cpu2.op_class::MemRead                       0      0.00%     91.67% # Class of executed instruction
system.cpu2.op_class::MemWrite                      0      0.00%     91.67% # Class of executed instruction
system.cpu2.op_class::FloatMemRead                  2      8.33%    100.00% # Class of executed instruction
system.cpu2.op_class::FloatMemWrite                 0      0.00%    100.00% # Class of executed instruction
system.cpu2.op_class::IprAccess                     0      0.00%    100.00% # Class of executed instruction
system.cpu2.op_class::InstPrefetch                  0      0.00%    100.00% # Class of executed instruction
system.cpu2.op_class::total                        24                       # Class of executed instruction
system.cpu2.workload.numSyscalls                    0                       # Number of system calls
system.cpu3.Branches                                3                       # Number of branches fetched
system.cpu3.committedInsts                         12                       # Number of instructions committed
system.cpu3.committedOps                           24                       # Number of ops (including micro ops) committed
system.cpu3.idle_fraction                           0                       # Percentage of idle cycles
system.cpu3.l2bus.snoop_filter.hit_multi_requests          434                       # Number of requests hitting in the snoop filter with multiple (>1) holders of the requested data.
system.cpu3.l2bus.snoop_filter.hit_multi_snoops            0                       # Number of snoops hitting in the snoop filter with multiple (>1) holders of the requested data.
system.cpu3.l2bus.snoop_filter.hit_single_requests      1789368                       # Number of requests hitting in the snoop filter with a single holder of the requested data.
system.cpu3.l2bus.snoop_filter.hit_single_snoops        21937                       # Number of snoops hitting in the snoop filter with a single holder of the requested data.
system.cpu3.l2bus.snoop_filter.tot_requests      3467076                       # Total number of requests made to the snoop filter.
system.cpu3.l2bus.snoop_filter.tot_snoops        21937                       # Total number of snoops made to the snoop filter.
system.cpu3.mmucache.mmubus.snoop_filter.hit_multi_requests            0                       # Number of requests hitting in the snoop filter with multiple (>1) holders of the requested data.
system.cpu3.mmucache.mmubus.snoop_filter.hit_multi_snoops            0                       # Number of snoops hitting in the snoop filter with multiple (>1) holders of the requested data.
system.cpu3.mmucache.mmubus.snoop_filter.hit_single_requests            0                       # Number of requests hitting in the snoop filter with a single holder of the requested data.
system.cpu3.mmucache.mmubus.snoop_filter.hit_single_snoops            0                       # Number of snoops hitting in the snoop filter with a single holder of the requested data.
system.cpu3.mmucache.mmubus.snoop_filter.tot_requests            0                       # Total number of requests made to the snoop filter.
system.cpu3.mmucache.mmubus.snoop_filter.tot_snoops            0                       # Total number of snoops made to the snoop filter.
system.cpu3.not_idle_fraction                       1                       # Percentage of non-idle cycles
system.cpu3.numCycles                              30                       # number of cpu cycles simulated
system.cpu3.numWorkItemsCompleted                   0                       # number of work items this cpu completed
system.cpu3.numWorkItemsStarted                     0                       # number of work items this cpu started
system.cpu3.num_busy_cycles                        30                       # Number of busy cycles
system.cpu3.num_cc_register_reads                  20                       # number of times the CC registers were read
system.cpu3.num_cc_register_writes                  6                       # number of times the CC registers were written
system.cpu3.num_conditional_control_insts            3                       # number of instructions that are conditional controls
system.cpu3.num_fp_alu_accesses                    14                       # Number of float alu accesses
system.cpu3.num_fp_insts                           14                       # number of float instructions
system.cpu3.num_fp_register_reads                  18                       # number of times the floating registers were read
system.cpu3.num_fp_register_writes                 12                       # number of times the floating registers were written
system.cpu3.num_func_calls                          0                       # number of times a function call or return occured
system.cpu3.num_idle_cycles                         0                       # Number of idle cycles
system.cpu3.num_int_alu_accesses                   12                       # Number of integer alu accesses
system.cpu3.num_int_insts                          12                       # number of integer instructions
system.cpu3.num_int_register_reads                 20                       # number of times the integer registers were read
system.cpu3.num_int_register_writes                 7                       # number of times the integer registers were written
system.cpu3.num_load_insts                          2                       # Number of load instructions
system.cpu3.num_mem_refs                            2                       # number of memory refs
system.cpu3.num_store_insts                         0                       # Number of store instructions
system.cpu3.num_vec_alu_accesses                    0                       # Number of vector alu accesses
system.cpu3.num_vec_insts                           0                       # number of vector instructions
system.cpu3.num_vec_register_reads                  0                       # number of times the vector registers were read
system.cpu3.num_vec_register_writes                 0                       # number of times the vector registers were written
system.cpu3.op_class::No_OpClass                    0      0.00%      0.00% # Class of executed instruction
system.cpu3.op_class::IntAlu                       14     58.33%     58.33% # Class of executed instruction
system.cpu3.op_class::IntMult                       0      0.00%     58.33% # Class of executed instruction
system.cpu3.op_class::IntDiv                        0      0.00%     58.33% # Class of executed instruction
system.cpu3.op_class::FloatAdd                      4     16.67%     75.00% # Class of executed instruction
system.cpu3.op_class::FloatCmp                      0      0.00%     75.00% # Class of executed instruction
system.cpu3.op_class::FloatCvt                      0      0.00%     75.00% # Class of executed instruction
system.cpu3.op_class::FloatMult                     0      0.00%     75.00% # Class of executed instruction
system.cpu3.op_class::FloatMultAcc                  0      0.00%     75.00% # Class of executed instruction
system.cpu3.op_class::FloatDiv                      0      0.00%     75.00% # Class of executed instruction
system.cpu3.op_class::FloatMisc                     0      0.00%     75.00% # Class of executed instruction
system.cpu3.op_class::FloatSqrt                     0      0.00%     75.00% # Class of executed instruction
system.cpu3.op_class::SimdAdd                       0      0.00%     75.00% # Class of executed instruction
system.cpu3.op_class::SimdAddAcc                    0      0.00%     75.00% # Class of executed instruction
system.cpu3.op_class::SimdAlu                       0      0.00%     75.00% # Class of executed instruction
system.cpu3.op_class::SimdCmp                       0      0.00%     75.00% # Class of executed instruction
system.cpu3.op_class::SimdCvt                       0      0.00%     75.00% # Class of executed instruction
system.cpu3.op_class::SimdMisc                      0      0.00%     75.00% # Class of executed instruction
system.cpu3.op_class::SimdMult                      0      0.00%     75.00% # Class of executed instruction
system.cpu3.op_class::SimdMultAcc                   0      0.00%     75.00% # Class of executed instruction
system.cpu3.op_class::SimdShift                     0      0.00%     75.00% # Class of executed instruction
system.cpu3.op_class::SimdShiftAcc                  0      0.00%     75.00% # Class of executed instruction
system.cpu3.op_class::SimdDiv                       0      0.00%     75.00% # Class of executed instruction
system.cpu3.op_class::SimdSqrt                      0      0.00%     75.00% # Class of executed instruction
system.cpu3.op_class::SimdFloatAdd                  1      4.17%     79.17% # Class of executed instruction
system.cpu3.op_class::SimdFloatAlu                  0      0.00%     79.17% # Class of executed instruction
system.cpu3.op_class::SimdFloatCmp                  0      0.00%     79.17% # Class of executed instruction
system.cpu3.op_class::SimdFloatCvt                  2      8.33%     87.50% # Class of executed instruction
system.cpu3.op_class::SimdFloatDiv                  0      0.00%     87.50% # Class of executed instruction
system.cpu3.op_class::SimdFloatMisc                 0      0.00%     87.50% # Class of executed instruction
system.cpu3.op_class::SimdFloatMult                 1      4.17%     91.67% # Class of executed instruction
system.cpu3.op_class::SimdFloatMultAcc              0      0.00%     91.67% # Class of executed instruction
system.cpu3.op_class::SimdFloatSqrt                 0      0.00%     91.67% # Class of executed instruction
system.cpu3.op_class::SimdReduceAdd                 0      0.00%     91.67% # Class of executed instruction
system.cpu3.op_class::SimdReduceAlu                 0      0.00%     91.67% # Class of executed instruction
system.cpu3.op_class::SimdReduceCmp                 0      0.00%     91.67% # Class of executed instruction
system.cpu3.op_class::SimdFloatReduceAdd            0      0.00%     91.67% # Class of executed instruction
system.cpu3.op_class::SimdFloatReduceCmp            0      0.00%     91.67% # Class of executed instruction
system.cpu3.op_class::SimdAes                       0      0.00%     91.67% # Class of executed instruction
system.cpu3.op_class::SimdAesMix                    0      0.00%     91.67% # Class of executed instruction
system.cpu3.op_class::SimdSha1Hash                  0      0.00%     91.67% # Class of executed instruction
system.cpu3.op_class::SimdSha1Hash2                 0      0.00%     91.67% # Class of executed instruction
system.cpu3.op_class::SimdSha256Hash                0      0.00%     91.67% # Class of executed instruction
system.cpu3.op_class::SimdSha256Hash2               0      0.00%     91.67% # Class of executed instruction
system.cpu3.op_class::SimdShaSigma2                 0      0.00%     91.67% # Class of executed instruction
system.cpu3.op_class::SimdShaSigma3                 0      0.00%     91.67% # Class of executed instruction
system.cpu3.op_class::SimdPredAlu                   0      0.00%     91.67% # Class of executed instruction
system.cpu3.op_class::MemRead                       0      0.00%     91.67% # Class of executed instruction
system.cpu3.op_class::MemWrite                      0      0.00%     91.67% # Class of executed instruction
system.cpu3.op_class::FloatMemRead                  2      8.33%    100.00% # Class of executed instruction
system.cpu3.op_class::FloatMemWrite                 0      0.00%    100.00% # Class of executed instruction
system.cpu3.op_class::IprAccess                     0      0.00%    100.00% # Class of executed instruction
system.cpu3.op_class::InstPrefetch                  0      0.00%    100.00% # Class of executed instruction
system.cpu3.op_class::total                        24                       # Class of executed instruction
system.cpu3.workload.numSyscalls                    0                       # Number of system calls
system.l3bus.snoop_filter.hit_multi_requests            0                       # Number of requests hitting in the snoop filter with multiple (>1) holders of the requested data.
system.l3bus.snoop_filter.hit_multi_snoops            0                       # Number of snoops hitting in the snoop filter with multiple (>1) holders of the requested data.
system.l3bus.snoop_filter.hit_single_requests      4724631                       # Number of requests hitting in the snoop filter with a single holder of the requested data.
system.l3bus.snoop_filter.hit_single_snoops            0                       # Number of snoops hitting in the snoop filter with a single holder of the requested data.
system.l3bus.snoop_filter.tot_requests        9466352                       # Total number of requests made to the snoop filter.
system.l3bus.snoop_filter.tot_snoops                0                       # Total number of snoops made to the snoop filter.
system.membus.snoop_filter.hit_multi_requests            0                       # Number of requests hitting in the snoop filter with multiple (>1) holders of the requested data.
system.membus.snoop_filter.hit_multi_snoops            0                       # Number of snoops hitting in the snoop filter with multiple (>1) holders of the requested data.
system.membus.snoop_filter.hit_single_requests       886850                       # Number of requests hitting in the snoop filter with a single holder of the requested data.
system.membus.snoop_filter.hit_single_snoops            0                       # Number of snoops hitting in the snoop filter with a single holder of the requested data.
system.membus.snoop_filter.tot_requests       1849787                       # Total number of requests made to the snoop filter.
system.membus.snoop_filter.tot_snoops               0                       # Total number of snoops made to the snoop filter.
system.switch_cpus0.cc_regfile_reads        193083722                       # number of cc regfile reads
system.switch_cpus0.cc_regfile_writes       110331869                       # number of cc regfile writes
system.switch_cpus0.committedInsts          249850171                       # Number of Instructions Simulated
system.switch_cpus0.committedOps            456172052                       # Number of Ops (including micro ops) Simulated
system.switch_cpus0.cpi                      0.700845                       # CPI: Cycles Per Instruction
system.switch_cpus0.cpi_total                0.700845                       # CPI: Total CPI of All Threads
system.switch_cpus0.fp_regfile_reads        309302239                       # number of floating regfile reads
system.switch_cpus0.fp_regfile_writes       225681980                       # number of floating regfile writes
system.switch_cpus0.idleCycles                 517881                       # Total number of cycles that the CPU has spent unscheduled due to idling
system.switch_cpus0.iew.branchMispredicts       619638                       # Number of branch mispredicts detected at execute
system.switch_cpus0.iew.exec_branches        34838676                       # Number of branches executed
system.switch_cpus0.iew.exec_nop                    0                       # number of nop insts executed
system.switch_cpus0.iew.exec_rate            2.802652                       # Inst execution rate
system.switch_cpus0.iew.exec_refs           107677191                       # number of memory reference insts executed
system.switch_cpus0.iew.exec_stores          30539083                       # Number of stores executed
system.switch_cpus0.iew.exec_swp                    0                       # number of swp insts executed
system.switch_cpus0.iew.iewBlockCycles       23362550                       # Number of cycles IEW is blocking
system.switch_cpus0.iew.iewDispLoadInsts     77023249                       # Number of dispatched load instructions
system.switch_cpus0.iew.iewDispNonSpecInsts         2129                       # Number of dispatched non-speculative instructions
system.switch_cpus0.iew.iewDispSquashedInsts        14184                       # Number of squashed instructions skipped by dispatch
system.switch_cpus0.iew.iewDispStoreInsts     32703969                       # Number of dispatched store instructions
system.switch_cpus0.iew.iewDispatchedInsts    499976319                       # Number of instructions dispatched to IQ
system.switch_cpus0.iew.iewExecLoadInsts     77138108                       # Number of load instructions executed
system.switch_cpus0.iew.iewExecSquashedInsts      2038786                       # Number of squashed instructions skipped in execute
system.switch_cpus0.iew.iewExecutedInsts    490762027                       # Number of executed instructions
system.switch_cpus0.iew.iewIQFullEvents        169916                       # Number of times the IQ has become full, causing a stall
system.switch_cpus0.iew.iewIdleCycles               0                       # Number of cycles IEW is idle
system.switch_cpus0.iew.iewLSQFullEvents      6660267                       # Number of times the LSQ has become full, causing a stall
system.switch_cpus0.iew.iewSquashCycles        724568                       # Number of cycles IEW is squashing
system.switch_cpus0.iew.iewUnblockCycles      6883754                       # Number of cycles IEW is unblocking
system.switch_cpus0.iew.memOrderViolationEvents        10876                       # Number of memory order violations
system.switch_cpus0.iew.predictedNotTakenIncorrect       226724                       # Number of branches that were predicted not taken incorrectly
system.switch_cpus0.iew.predictedTakenIncorrect       392914                       # Number of branches that were predicted taken incorrectly
system.switch_cpus0.iew.wb_consumers        536433942                       # num instructions consuming a value
system.switch_cpus0.iew.wb_count            487365482                       # cumulative count of insts written-back
system.switch_cpus0.iew.wb_fanout            0.600158                       # average fanout of values written-back
system.switch_cpus0.iew.wb_producers        321945335                       # num instructions producing a value
system.switch_cpus0.iew.wb_rate              2.783255                       # insts written-back per cycle
system.switch_cpus0.iew.wb_sent             489251472                       # cumulative count of insts sent to commit
system.switch_cpus0.int_regfile_reads       419793229                       # number of integer regfile reads
system.switch_cpus0.int_regfile_writes      182806342                       # number of integer regfile writes
system.switch_cpus0.ipc                      1.426848                       # IPC: Instructions Per Cycle
system.switch_cpus0.ipc_total                1.426848                       # IPC: Total IPC of All Threads
system.switch_cpus0.iq.FU_type_0::No_OpClass      1571107      0.32%      0.32% # Type of FU issued
system.switch_cpus0.iq.FU_type_0::IntAlu    222826714     45.22%     45.54% # Type of FU issued
system.switch_cpus0.iq.FU_type_0::IntMult        11436      0.00%     45.54% # Type of FU issued
system.switch_cpus0.iq.FU_type_0::IntDiv            0      0.00%     45.54% # Type of FU issued
system.switch_cpus0.iq.FU_type_0::FloatAdd     68812578     13.96%     59.50% # Type of FU issued
system.switch_cpus0.iq.FU_type_0::FloatCmp            0      0.00%     59.50% # Type of FU issued
system.switch_cpus0.iq.FU_type_0::FloatCvt            0      0.00%     59.50% # Type of FU issued
system.switch_cpus0.iq.FU_type_0::FloatMult            0      0.00%     59.50% # Type of FU issued
system.switch_cpus0.iq.FU_type_0::FloatMultAcc            0      0.00%     59.50% # Type of FU issued
system.switch_cpus0.iq.FU_type_0::FloatDiv            0      0.00%     59.50% # Type of FU issued
system.switch_cpus0.iq.FU_type_0::FloatMisc            0      0.00%     59.50% # Type of FU issued
system.switch_cpus0.iq.FU_type_0::FloatSqrt            0      0.00%     59.50% # Type of FU issued
system.switch_cpus0.iq.FU_type_0::SimdAdd            0      0.00%     59.50% # Type of FU issued
system.switch_cpus0.iq.FU_type_0::SimdAddAcc            0      0.00%     59.50% # Type of FU issued
system.switch_cpus0.iq.FU_type_0::SimdAlu      9242206      1.88%     61.38% # Type of FU issued
system.switch_cpus0.iq.FU_type_0::SimdCmp            0      0.00%     61.38% # Type of FU issued
system.switch_cpus0.iq.FU_type_0::SimdCvt            0      0.00%     61.38% # Type of FU issued
system.switch_cpus0.iq.FU_type_0::SimdMisc      5714961      1.16%     62.54% # Type of FU issued
system.switch_cpus0.iq.FU_type_0::SimdMult            0      0.00%     62.54% # Type of FU issued
system.switch_cpus0.iq.FU_type_0::SimdMultAcc            0      0.00%     62.54% # Type of FU issued
system.switch_cpus0.iq.FU_type_0::SimdShift            0      0.00%     62.54% # Type of FU issued
system.switch_cpus0.iq.FU_type_0::SimdShiftAcc            0      0.00%     62.54% # Type of FU issued
system.switch_cpus0.iq.FU_type_0::SimdDiv            0      0.00%     62.54% # Type of FU issued
system.switch_cpus0.iq.FU_type_0::SimdSqrt            0      0.00%     62.54% # Type of FU issued
system.switch_cpus0.iq.FU_type_0::SimdFloatAdd     23841814      4.84%     67.37% # Type of FU issued
system.switch_cpus0.iq.FU_type_0::SimdFloatAlu            0      0.00%     67.37% # Type of FU issued
system.switch_cpus0.iq.FU_type_0::SimdFloatCmp       652198      0.13%     67.51% # Type of FU issued
system.switch_cpus0.iq.FU_type_0::SimdFloatCvt     18089025      3.67%     71.18% # Type of FU issued
system.switch_cpus0.iq.FU_type_0::SimdFloatDiv      5720745      1.16%     72.34% # Type of FU issued
system.switch_cpus0.iq.FU_type_0::SimdFloatMisc            0      0.00%     72.34% # Type of FU issued
system.switch_cpus0.iq.FU_type_0::SimdFloatMult     27062168      5.49%     77.83% # Type of FU issued
system.switch_cpus0.iq.FU_type_0::SimdFloatMultAcc            0      0.00%     77.83% # Type of FU issued
system.switch_cpus0.iq.FU_type_0::SimdFloatSqrt      1016284      0.21%     78.04% # Type of FU issued
system.switch_cpus0.iq.FU_type_0::SimdReduceAdd            0      0.00%     78.04% # Type of FU issued
system.switch_cpus0.iq.FU_type_0::SimdReduceAlu            0      0.00%     78.04% # Type of FU issued
system.switch_cpus0.iq.FU_type_0::SimdReduceCmp            0      0.00%     78.04% # Type of FU issued
system.switch_cpus0.iq.FU_type_0::SimdFloatReduceAdd            0      0.00%     78.04% # Type of FU issued
system.switch_cpus0.iq.FU_type_0::SimdFloatReduceCmp            0      0.00%     78.04% # Type of FU issued
system.switch_cpus0.iq.FU_type_0::SimdAes            0      0.00%     78.04% # Type of FU issued
system.switch_cpus0.iq.FU_type_0::SimdAesMix            0      0.00%     78.04% # Type of FU issued
system.switch_cpus0.iq.FU_type_0::SimdSha1Hash            0      0.00%     78.04% # Type of FU issued
system.switch_cpus0.iq.FU_type_0::SimdSha1Hash2            0      0.00%     78.04% # Type of FU issued
system.switch_cpus0.iq.FU_type_0::SimdSha256Hash            0      0.00%     78.04% # Type of FU issued
system.switch_cpus0.iq.FU_type_0::SimdSha256Hash2            0      0.00%     78.04% # Type of FU issued
system.switch_cpus0.iq.FU_type_0::SimdShaSigma2            0      0.00%     78.04% # Type of FU issued
system.switch_cpus0.iq.FU_type_0::SimdShaSigma3            0      0.00%     78.04% # Type of FU issued
system.switch_cpus0.iq.FU_type_0::SimdPredAlu            0      0.00%     78.04% # Type of FU issued
system.switch_cpus0.iq.FU_type_0::MemRead     17033720      3.46%     81.49% # Type of FU issued
system.switch_cpus0.iq.FU_type_0::MemWrite      7987277      1.62%     83.11% # Type of FU issued
system.switch_cpus0.iq.FU_type_0::FloatMemRead     60546963     12.29%     95.40% # Type of FU issued
system.switch_cpus0.iq.FU_type_0::FloatMemWrite     22671617      4.60%    100.00% # Type of FU issued
system.switch_cpus0.iq.FU_type_0::IprAccess            0      0.00%    100.00% # Type of FU issued
system.switch_cpus0.iq.FU_type_0::InstPrefetch            0      0.00%    100.00% # Type of FU issued
system.switch_cpus0.iq.FU_type_0::total     492800813                       # Type of FU issued
system.switch_cpus0.iq.fp_alu_accesses      272116057                       # Number of floating point alu accesses
system.switch_cpus0.iq.fp_inst_queue_reads    541761799                       # Number of floating instruction queue reads
system.switch_cpus0.iq.fp_inst_queue_wakeup_accesses    266612560                       # Number of floating instruction queue wakeup accesses
system.switch_cpus0.iq.fp_inst_queue_writes    294636177                       # Number of floating instruction queue writes
system.switch_cpus0.iq.fu_busy_cnt            4769175                       # FU busy when requested
system.switch_cpus0.iq.fu_busy_rate          0.009678                       # FU busy rate (busy events/executed inst)
system.switch_cpus0.iq.fu_full::No_OpClass            0      0.00%      0.00% # attempts to use FU when none available
system.switch_cpus0.iq.fu_full::IntAlu        1329117     27.87%     27.87% # attempts to use FU when none available
system.switch_cpus0.iq.fu_full::IntMult             0      0.00%     27.87% # attempts to use FU when none available
system.switch_cpus0.iq.fu_full::IntDiv              0      0.00%     27.87% # attempts to use FU when none available
system.switch_cpus0.iq.fu_full::FloatAdd        94167      1.97%     29.84% # attempts to use FU when none available
system.switch_cpus0.iq.fu_full::FloatCmp            0      0.00%     29.84% # attempts to use FU when none available
system.switch_cpus0.iq.fu_full::FloatCvt            0      0.00%     29.84% # attempts to use FU when none available
system.switch_cpus0.iq.fu_full::FloatMult            0      0.00%     29.84% # attempts to use FU when none available
system.switch_cpus0.iq.fu_full::FloatMultAcc            0      0.00%     29.84% # attempts to use FU when none available
system.switch_cpus0.iq.fu_full::FloatDiv            0      0.00%     29.84% # attempts to use FU when none available
system.switch_cpus0.iq.fu_full::FloatMisc            0      0.00%     29.84% # attempts to use FU when none available
system.switch_cpus0.iq.fu_full::FloatSqrt            0      0.00%     29.84% # attempts to use FU when none available
system.switch_cpus0.iq.fu_full::SimdAdd             0      0.00%     29.84% # attempts to use FU when none available
system.switch_cpus0.iq.fu_full::SimdAddAcc            0      0.00%     29.84% # attempts to use FU when none available
system.switch_cpus0.iq.fu_full::SimdAlu        191550      4.02%     33.86% # attempts to use FU when none available
system.switch_cpus0.iq.fu_full::SimdCmp             0      0.00%     33.86% # attempts to use FU when none available
system.switch_cpus0.iq.fu_full::SimdCvt             0      0.00%     33.86% # attempts to use FU when none available
system.switch_cpus0.iq.fu_full::SimdMisc        26721      0.56%     34.42% # attempts to use FU when none available
system.switch_cpus0.iq.fu_full::SimdMult            0      0.00%     34.42% # attempts to use FU when none available
system.switch_cpus0.iq.fu_full::SimdMultAcc            0      0.00%     34.42% # attempts to use FU when none available
system.switch_cpus0.iq.fu_full::SimdShift            0      0.00%     34.42% # attempts to use FU when none available
system.switch_cpus0.iq.fu_full::SimdShiftAcc            0      0.00%     34.42% # attempts to use FU when none available
system.switch_cpus0.iq.fu_full::SimdDiv             0      0.00%     34.42% # attempts to use FU when none available
system.switch_cpus0.iq.fu_full::SimdSqrt            0      0.00%     34.42% # attempts to use FU when none available
system.switch_cpus0.iq.fu_full::SimdFloatAdd        89504      1.88%     36.30% # attempts to use FU when none available
system.switch_cpus0.iq.fu_full::SimdFloatAlu            0      0.00%     36.30% # attempts to use FU when none available
system.switch_cpus0.iq.fu_full::SimdFloatCmp            3      0.00%     36.30% # attempts to use FU when none available
system.switch_cpus0.iq.fu_full::SimdFloatCvt       141124      2.96%     39.26% # attempts to use FU when none available
system.switch_cpus0.iq.fu_full::SimdFloatDiv        14849      0.31%     39.57% # attempts to use FU when none available
system.switch_cpus0.iq.fu_full::SimdFloatMisc            0      0.00%     39.57% # attempts to use FU when none available
system.switch_cpus0.iq.fu_full::SimdFloatMult        92924      1.95%     41.52% # attempts to use FU when none available
system.switch_cpus0.iq.fu_full::SimdFloatMultAcc            0      0.00%     41.52% # attempts to use FU when none available
system.switch_cpus0.iq.fu_full::SimdFloatSqrt         1009      0.02%     41.54% # attempts to use FU when none available
system.switch_cpus0.iq.fu_full::SimdReduceAdd            0      0.00%     41.54% # attempts to use FU when none available
system.switch_cpus0.iq.fu_full::SimdReduceAlu            0      0.00%     41.54% # attempts to use FU when none available
system.switch_cpus0.iq.fu_full::SimdReduceCmp            0      0.00%     41.54% # attempts to use FU when none available
system.switch_cpus0.iq.fu_full::SimdFloatReduceAdd            0      0.00%     41.54% # attempts to use FU when none available
system.switch_cpus0.iq.fu_full::SimdFloatReduceCmp            0      0.00%     41.54% # attempts to use FU when none available
system.switch_cpus0.iq.fu_full::SimdAes             0      0.00%     41.54% # attempts to use FU when none available
system.switch_cpus0.iq.fu_full::SimdAesMix            0      0.00%     41.54% # attempts to use FU when none available
system.switch_cpus0.iq.fu_full::SimdSha1Hash            0      0.00%     41.54% # attempts to use FU when none available
system.switch_cpus0.iq.fu_full::SimdSha1Hash2            0      0.00%     41.54% # attempts to use FU when none available
system.switch_cpus0.iq.fu_full::SimdSha256Hash            0      0.00%     41.54% # attempts to use FU when none available
system.switch_cpus0.iq.fu_full::SimdSha256Hash2            0      0.00%     41.54% # attempts to use FU when none available
system.switch_cpus0.iq.fu_full::SimdShaSigma2            0      0.00%     41.54% # attempts to use FU when none available
system.switch_cpus0.iq.fu_full::SimdShaSigma3            0      0.00%     41.54% # attempts to use FU when none available
system.switch_cpus0.iq.fu_full::SimdPredAlu            0      0.00%     41.54% # attempts to use FU when none available
system.switch_cpus0.iq.fu_full::MemRead        399044      8.37%     49.90% # attempts to use FU when none available
system.switch_cpus0.iq.fu_full::MemWrite       650580     13.64%     63.55% # attempts to use FU when none available
system.switch_cpus0.iq.fu_full::FloatMemRead      1106289     23.20%     86.74% # attempts to use FU when none available
system.switch_cpus0.iq.fu_full::FloatMemWrite       632294     13.26%    100.00% # attempts to use FU when none available
system.switch_cpus0.iq.fu_full::IprAccess            0      0.00%    100.00% # attempts to use FU when none available
system.switch_cpus0.iq.fu_full::InstPrefetch            0      0.00%    100.00% # attempts to use FU when none available
system.switch_cpus0.iq.int_alu_accesses     223882824                       # Number of integer alu accesses
system.switch_cpus0.iq.int_inst_queue_reads    623448049                       # Number of integer instruction queue reads
system.switch_cpus0.iq.int_inst_queue_wakeup_accesses    220752922                       # Number of integer instruction queue wakeup accesses
system.switch_cpus0.iq.int_inst_queue_writes    249155069                       # Number of integer instruction queue writes
system.switch_cpus0.iq.iqInstsAdded         499849002                       # Number of instructions added to the IQ (excludes non-spec)
system.switch_cpus0.iq.iqInstsIssued        492800813                       # Number of instructions issued
system.switch_cpus0.iq.iqNonSpecInstsAdded       127317                       # Number of non-speculative instructions added to the IQ
system.switch_cpus0.iq.iqSquashedInstsExamined     43804267                       # Number of squashed instructions iterated over during squash; mainly for profiling
system.switch_cpus0.iq.iqSquashedInstsIssued       250607                       # Number of squashed instructions issued
system.switch_cpus0.iq.iqSquashedNonSpecRemoved       114453                       # Number of squashed non-spec instructions that were removed
system.switch_cpus0.iq.iqSquashedOperandsExamined     36354247                       # Number of squashed operands that are examined and possibly removed from graph
system.switch_cpus0.iq.issued_per_cycle::samples    174588440                       # Number of insts issued each cycle
system.switch_cpus0.iq.issued_per_cycle::mean     2.822643                       # Number of insts issued each cycle
system.switch_cpus0.iq.issued_per_cycle::stdev     3.027125                       # Number of insts issued each cycle
system.switch_cpus0.iq.issued_per_cycle::underflows            0      0.00%      0.00% # Number of insts issued each cycle
system.switch_cpus0.iq.issued_per_cycle::0     75913168     43.48%     43.48% # Number of insts issued each cycle
system.switch_cpus0.iq.issued_per_cycle::1      8713421      4.99%     48.47% # Number of insts issued each cycle
system.switch_cpus0.iq.issued_per_cycle::2      9877687      5.66%     54.13% # Number of insts issued each cycle
system.switch_cpus0.iq.issued_per_cycle::3     11284640      6.46%     60.59% # Number of insts issued each cycle
system.switch_cpus0.iq.issued_per_cycle::4     11557491      6.62%     67.21% # Number of insts issued each cycle
system.switch_cpus0.iq.issued_per_cycle::5     12354407      7.08%     74.29% # Number of insts issued each cycle
system.switch_cpus0.iq.issued_per_cycle::6     11919233      6.83%     81.12% # Number of insts issued each cycle
system.switch_cpus0.iq.issued_per_cycle::7     12786443      7.32%     88.44% # Number of insts issued each cycle
system.switch_cpus0.iq.issued_per_cycle::8     20181950     11.56%    100.00% # Number of insts issued each cycle
system.switch_cpus0.iq.issued_per_cycle::overflows            0      0.00%    100.00% # Number of insts issued each cycle
system.switch_cpus0.iq.issued_per_cycle::min_value            0                       # Number of insts issued each cycle
system.switch_cpus0.iq.issued_per_cycle::max_value            8                       # Number of insts issued each cycle
system.switch_cpus0.iq.issued_per_cycle::total    174588440                       # Number of insts issued each cycle
system.switch_cpus0.iq.rate                  2.814295                       # Inst issue rate
system.switch_cpus0.iq.vec_alu_accesses             0                       # Number of vector alu accesses
system.switch_cpus0.iq.vec_inst_queue_reads            0                       # Number of vector instruction queue reads
system.switch_cpus0.iq.vec_inst_queue_wakeup_accesses            0                       # Number of vector instruction queue wakeup accesses
system.switch_cpus0.iq.vec_inst_queue_writes            0                       # Number of vector instruction queue writes
system.switch_cpus0.memDep0.conflictingLoads      3509728                       # Number of conflicting loads.
system.switch_cpus0.memDep0.conflictingStores      3287716                       # Number of conflicting stores.
system.switch_cpus0.memDep0.insertedLoads     77023249                       # Number of loads inserted to the mem dependence unit.
system.switch_cpus0.memDep0.insertedStores     32703969                       # Number of stores inserted to the mem dependence unit.
system.switch_cpus0.misc_regfile_reads      194568320                       # number of misc regfile reads
system.switch_cpus0.misc_regfile_writes             1                       # number of misc regfile writes
system.switch_cpus0.numCycles               175106321                       # number of cpu cycles simulated
system.switch_cpus0.numWorkItemsCompleted            0                       # number of work items this cpu completed
system.switch_cpus0.numWorkItemsStarted             0                       # number of work items this cpu started
system.switch_cpus0.timesIdled                  12054                       # Number of times that the entire CPU went into an idle state and unscheduled itself
system.switch_cpus1.cc_regfile_reads        193064961                       # number of cc regfile reads
system.switch_cpus1.cc_regfile_writes       110316858                       # number of cc regfile writes
system.switch_cpus1.committedInsts          249820325                       # Number of Instructions Simulated
system.switch_cpus1.committedOps            456121332                       # Number of Ops (including micro ops) Simulated
system.switch_cpus1.cpi                      0.700929                       # CPI: Cycles Per Instruction
system.switch_cpus1.cpi_total                0.700929                       # CPI: Total CPI of All Threads
system.switch_cpus1.fp_regfile_reads        309291150                       # number of floating regfile reads
system.switch_cpus1.fp_regfile_writes       225665355                       # number of floating regfile writes
system.switch_cpus1.idleCycles                 541420                       # Total number of cycles that the CPU has spent unscheduled due to idling
system.switch_cpus1.iew.branchMispredicts       619081                       # Number of branch mispredicts detected at execute
system.switch_cpus1.iew.exec_branches        34835579                       # Number of branches executed
system.switch_cpus1.iew.exec_nop                    0                       # number of nop insts executed
system.switch_cpus1.iew.exec_rate            2.802426                       # Inst execution rate
system.switch_cpus1.iew.exec_refs           107665493                       # number of memory reference insts executed
system.switch_cpus1.iew.exec_stores          30529758                       # Number of stores executed
system.switch_cpus1.iew.exec_swp                    0                       # number of swp insts executed
system.switch_cpus1.iew.iewBlockCycles       23186694                       # Number of cycles IEW is blocking
system.switch_cpus1.iew.iewDispLoadInsts     77022930                       # Number of dispatched load instructions
system.switch_cpus1.iew.iewDispNonSpecInsts         2121                       # Number of dispatched non-speculative instructions
system.switch_cpus1.iew.iewDispSquashedInsts        14107                       # Number of squashed instructions skipped by dispatch
system.switch_cpus1.iew.iewDispStoreInsts     32698321                       # Number of dispatched store instructions
system.switch_cpus1.iew.iewDispatchedInsts    499946661                       # Number of instructions dispatched to IQ
system.switch_cpus1.iew.iewExecLoadInsts     77135735                       # Number of load instructions executed
system.switch_cpus1.iew.iewExecSquashedInsts      2039820                       # Number of squashed instructions skipped in execute
system.switch_cpus1.iew.iewExecutedInsts    490722564                       # Number of executed instructions
system.switch_cpus1.iew.iewIQFullEvents        168957                       # Number of times the IQ has become full, causing a stall
system.switch_cpus1.iew.iewIdleCycles               0                       # Number of cycles IEW is idle
system.switch_cpus1.iew.iewLSQFullEvents      6428701                       # Number of times the LSQ has become full, causing a stall
system.switch_cpus1.iew.iewSquashCycles        724132                       # Number of cycles IEW is squashing
system.switch_cpus1.iew.iewUnblockCycles      6648591                       # Number of cycles IEW is unblocking
system.switch_cpus1.iew.memOrderViolationEvents        10878                       # Number of memory order violations
system.switch_cpus1.iew.predictedNotTakenIncorrect       226276                       # Number of branches that were predicted not taken incorrectly
system.switch_cpus1.iew.predictedTakenIncorrect       392805                       # Number of branches that were predicted taken incorrectly
system.switch_cpus1.iew.wb_consumers        536436196                       # num instructions consuming a value
system.switch_cpus1.iew.wb_count            487325685                       # cumulative count of insts written-back
system.switch_cpus1.iew.wb_fanout            0.600149                       # average fanout of values written-back
system.switch_cpus1.iew.wb_producers        321941692                       # num instructions producing a value
system.switch_cpus1.iew.wb_rate              2.783027                       # insts written-back per cycle
system.switch_cpus1.iew.wb_sent             489211472                       # cumulative count of insts sent to commit
system.switch_cpus1.int_regfile_reads       419754407                       # number of integer regfile reads
system.switch_cpus1.int_regfile_writes      182795706                       # number of integer regfile writes
system.switch_cpus1.ipc                      1.426678                       # IPC: Instructions Per Cycle
system.switch_cpus1.ipc_total                1.426678                       # IPC: Total IPC of All Threads
system.switch_cpus1.iq.FU_type_0::No_OpClass      1570561      0.32%      0.32% # Type of FU issued
system.switch_cpus1.iq.FU_type_0::IntAlu    222809695     45.22%     45.54% # Type of FU issued
system.switch_cpus1.iq.FU_type_0::IntMult        11408      0.00%     45.54% # Type of FU issued
system.switch_cpus1.iq.FU_type_0::IntDiv            0      0.00%     45.54% # Type of FU issued
system.switch_cpus1.iq.FU_type_0::FloatAdd     68802102     13.96%     59.50% # Type of FU issued
system.switch_cpus1.iq.FU_type_0::FloatCmp            0      0.00%     59.50% # Type of FU issued
system.switch_cpus1.iq.FU_type_0::FloatCvt            0      0.00%     59.50% # Type of FU issued
system.switch_cpus1.iq.FU_type_0::FloatMult            0      0.00%     59.50% # Type of FU issued
system.switch_cpus1.iq.FU_type_0::FloatMultAcc            0      0.00%     59.50% # Type of FU issued
system.switch_cpus1.iq.FU_type_0::FloatDiv            0      0.00%     59.50% # Type of FU issued
system.switch_cpus1.iq.FU_type_0::FloatMisc            0      0.00%     59.50% # Type of FU issued
system.switch_cpus1.iq.FU_type_0::FloatSqrt            0      0.00%     59.50% # Type of FU issued
system.switch_cpus1.iq.FU_type_0::SimdAdd            0      0.00%     59.50% # Type of FU issued
system.switch_cpus1.iq.FU_type_0::SimdAddAcc            0      0.00%     59.50% # Type of FU issued
system.switch_cpus1.iq.FU_type_0::SimdAlu      9242464      1.88%     61.38% # Type of FU issued
system.switch_cpus1.iq.FU_type_0::SimdCmp            0      0.00%     61.38% # Type of FU issued
system.switch_cpus1.iq.FU_type_0::SimdCvt            0      0.00%     61.38% # Type of FU issued
system.switch_cpus1.iq.FU_type_0::SimdMisc      5715473      1.16%     62.54% # Type of FU issued
system.switch_cpus1.iq.FU_type_0::SimdMult            0      0.00%     62.54% # Type of FU issued
system.switch_cpus1.iq.FU_type_0::SimdMultAcc            0      0.00%     62.54% # Type of FU issued
system.switch_cpus1.iq.FU_type_0::SimdShift            0      0.00%     62.54% # Type of FU issued
system.switch_cpus1.iq.FU_type_0::SimdShiftAcc            0      0.00%     62.54% # Type of FU issued
system.switch_cpus1.iq.FU_type_0::SimdDiv            0      0.00%     62.54% # Type of FU issued
system.switch_cpus1.iq.FU_type_0::SimdSqrt            0      0.00%     62.54% # Type of FU issued
system.switch_cpus1.iq.FU_type_0::SimdFloatAdd     23841060      4.84%     67.37% # Type of FU issued
system.switch_cpus1.iq.FU_type_0::SimdFloatAlu            0      0.00%     67.37% # Type of FU issued
system.switch_cpus1.iq.FU_type_0::SimdFloatCmp       652240      0.13%     67.51% # Type of FU issued
system.switch_cpus1.iq.FU_type_0::SimdFloatCvt     18089301      3.67%     71.18% # Type of FU issued
system.switch_cpus1.iq.FU_type_0::SimdFloatDiv      5720637      1.16%     72.34% # Type of FU issued
system.switch_cpus1.iq.FU_type_0::SimdFloatMisc            0      0.00%     72.34% # Type of FU issued
system.switch_cpus1.iq.FU_type_0::SimdFloatMult     27062535      5.49%     77.83% # Type of FU issued
system.switch_cpus1.iq.FU_type_0::SimdFloatMultAcc            0      0.00%     77.83% # Type of FU issued
system.switch_cpus1.iq.FU_type_0::SimdFloatSqrt      1016354      0.21%     78.04% # Type of FU issued
system.switch_cpus1.iq.FU_type_0::SimdReduceAdd            0      0.00%     78.04% # Type of FU issued
system.switch_cpus1.iq.FU_type_0::SimdReduceAlu            0      0.00%     78.04% # Type of FU issued
system.switch_cpus1.iq.FU_type_0::SimdReduceCmp            0      0.00%     78.04% # Type of FU issued
system.switch_cpus1.iq.FU_type_0::SimdFloatReduceAdd            0      0.00%     78.04% # Type of FU issued
system.switch_cpus1.iq.FU_type_0::SimdFloatReduceCmp            0      0.00%     78.04% # Type of FU issued
[...]
system.switch_cpus3.commit.numCommittedDist::1     13882398      8.19%     59.97% # Number of insts commited each cycle
system.switch_cpus3.commit.numCommittedDist::2      3434711      2.03%     62.00% # Number of insts commited each cycle
system.switch_cpus3.commit.numCommittedDist::3      7186409      4.24%     66.24% # Number of insts commited each cycle
system.switch_cpus3.commit.numCommittedDist::4      5752646      3.40%     69.64% # Number of insts commited each cycle
system.switch_cpus3.commit.numCommittedDist::5      3966338      2.34%     71.98% # Number of insts commited each cycle
system.switch_cpus3.commit.numCommittedDist::6      2809114      1.66%     73.64% # Number of insts commited each cycle
system.switch_cpus3.commit.numCommittedDist::7      2909089      1.72%     75.35% # Number of insts commited each cycle
system.switch_cpus3.commit.numCommittedDist::8     41758379     24.65%    100.00% # Number of insts commited each cycle
system.switch_cpus3.commit.numCommittedDist::overflows            0      0.00%    100.00% # Number of insts commited each cycle
system.switch_cpus3.commit.numCommittedDist::min_value            0                       # Number of insts commited each cycle
system.switch_cpus3.commit.numCommittedDist::max_value            8                       # Number of insts commited each cycle
system.switch_cpus3.commit.numCommittedDist::total    169424389                       # Number of insts commited each cycle
system.switch_cpus3.commit.instsCommitted    250000002                       # Number of instructions committed
system.switch_cpus3.commit.opsCommitted     456438660                       # Number of ops (including micro ops) committed
system.switch_cpus3.commit.memRefs           95535589                       # Number of memory references committed
system.switch_cpus3.commit.loads             69324057                       # Number of loads committed
system.switch_cpus3.commit.amos                     0                       # Number of atomic instructions committed
system.switch_cpus3.commit.membars               1880                       # Number of memory barriers committed
system.switch_cpus3.commit.branches          33082920                       # Number of branches committed
system.switch_cpus3.commit.vector                   0                       # Number of committed Vector instructions.
system.switch_cpus3.commit.floating         253088999                       # Number of committed floating point instructions.
system.switch_cpus3.commit.integer          282469133                       # Number of committed integer instructions.
system.switch_cpus3.commit.functionCalls      1781692                       # Number of function calls committed.
system.switch_cpus3.commit.committedInstType_0::No_OpClass       157149      0.03%      0.03% # Class of committed instruction
system.switch_cpus3.commit.committedInstType_0::IntAlu    206294733     45.20%     45.23% # Class of committed instruction
system.switch_cpus3.commit.committedInstType_0::IntMult        10887      0.00%     45.23% # Class of committed instruction
system.switch_cpus3.commit.committedInstType_0::IntDiv            0      0.00%     45.23% # Class of committed instruction
system.switch_cpus3.commit.committedInstType_0::FloatAdd     65125216     14.27%     59.50% # Class of committed instruction
system.switch_cpus3.commit.committedInstType_0::FloatCmp            0      0.00%     59.50% # Class of committed instruction
system.switch_cpus3.commit.committedInstType_0::FloatCvt            0      0.00%     59.50% # Class of committed instruction
system.switch_cpus3.commit.committedInstType_0::FloatMult            0      0.00%     59.50% # Class of committed instruction
system.switch_cpus3.commit.committedInstType_0::FloatMultAcc            0      0.00%     59.50% # Class of committed instruction
system.switch_cpus3.commit.committedInstType_0::FloatDiv            0      0.00%     59.50% # Class of committed instruction
system.switch_cpus3.commit.committedInstType_0::FloatMisc            0      0.00%     59.50% # Class of committed instruction
system.switch_cpus3.commit.committedInstType_0::FloatSqrt            0      0.00%     59.50% # Class of committed instruction
system.switch_cpus3.commit.committedInstType_0::SimdAdd            0      0.00%     59.50% # Class of committed instruction
system.switch_cpus3.commit.committedInstType_0::SimdAddAcc            0      0.00%     59.50% # Class of committed instruction
system.switch_cpus3.commit.committedInstType_0::SimdAlu      8954648      1.96%     61.46% # Class of committed instruction
system.switch_cpus3.commit.committedInstType_0::SimdCmp            0      0.00%     61.46% # Class of committed instruction
system.switch_cpus3.commit.committedInstType_0::SimdCvt            0      0.00%     61.46% # Class of committed instruction
system.switch_cpus3.commit.committedInstType_0::SimdMisc      5666285      1.24%     62.70% # Class of committed instruction
system.switch_cpus3.commit.committedInstType_0::SimdMult            0      0.00%     62.70% # Class of committed instruction
system.switch_cpus3.commit.committedInstType_0::SimdMultAcc            0      0.00%     62.70% # Class of committed instruction
system.switch_cpus3.commit.committedInstType_0::SimdShift            0      0.00%     62.70% # Class of committed instruction
system.switch_cpus3.commit.committedInstType_0::SimdShiftAcc            0      0.00%     62.70% # Class of committed instruction
system.switch_cpus3.commit.committedInstType_0::SimdDiv            0      0.00%     62.70% # Class of committed instruction
system.switch_cpus3.commit.committedInstType_0::SimdSqrt            0      0.00%     62.70% # Class of committed instruction
system.switch_cpus3.commit.committedInstType_0::SimdFloatAdd     23219967      5.09%     67.79% # Class of committed instruction
system.switch_cpus3.commit.committedInstType_0::SimdFloatAlu            0      0.00%     67.79% # Class of committed instruction
system.switch_cpus3.commit.committedInstType_0::SimdFloatCmp       645181      0.14%     67.93% # Class of committed instruction
system.switch_cpus3.commit.committedInstType_0::SimdFloatCvt     17698286      3.88%     71.81% # Class of committed instruction
system.switch_cpus3.commit.committedInstType_0::SimdFloatDiv      5533644      1.21%     73.02% # Class of committed instruction
system.switch_cpus3.commit.committedInstType_0::SimdFloatMisc            0      0.00%     73.02% # Class of committed instruction
system.switch_cpus3.commit.committedInstType_0::SimdFloatMult     26610426      5.83%     78.85% # Class of committed instruction
system.switch_cpus3.commit.committedInstType_0::SimdFloatMultAcc            0      0.00%     78.85% # Class of committed instruction
system.switch_cpus3.commit.committedInstType_0::SimdFloatSqrt       986649      0.22%     79.07% # Class of committed instruction
system.switch_cpus3.commit.committedInstType_0::SimdReduceAdd            0      0.00%     79.07% # Class of committed instruction
system.switch_cpus3.commit.committedInstType_0::SimdReduceAlu            0      0.00%     79.07% # Class of committed instruction
system.switch_cpus3.commit.committedInstType_0::SimdReduceCmp            0      0.00%     79.07% # Class of committed instruction
system.switch_cpus3.commit.committedInstType_0::SimdFloatReduceAdd            0      0.00%     79.07% # Class of committed instruction
system.switch_cpus3.commit.committedInstType_0::SimdFloatReduceCmp            0      0.00%     79.07% # Class of committed instruction
system.switch_cpus3.commit.committedInstType_0::SimdAes            0      0.00%     79.07% # Class of committed instruction
system.switch_cpus3.commit.committedInstType_0::SimdAesMix            0      0.00%     79.07% # Class of committed instruction
system.switch_cpus3.commit.committedInstType_0::SimdSha1Hash            0      0.00%     79.07% # Class of committed instruction
system.switch_cpus3.commit.committedInstType_0::SimdSha1Hash2            0      0.00%     79.07% # Class of committed instruction
system.switch_cpus3.commit.committedInstType_0::SimdSha256Hash            0      0.00%     79.07% # Class of committed instruction
system.switch_cpus3.commit.committedInstType_0::SimdSha256Hash2            0      0.00%     79.07% # Class of committed instruction
system.switch_cpus3.commit.committedInstType_0::SimdShaSigma2            0      0.00%     79.07% # Class of committed instruction
system.switch_cpus3.commit.committedInstType_0::SimdShaSigma3            0      0.00%     79.07% # Class of committed instruction
system.switch_cpus3.commit.committedInstType_0::SimdPredAlu            0      0.00%     79.07% # Class of committed instruction
system.switch_cpus3.commit.committedInstType_0::MemRead     15185749      3.33%     82.40% # Class of committed instruction
system.switch_cpus3.commit.committedInstType_0::MemWrite      6521327      1.43%     83.83% # Class of committed instruction
system.switch_cpus3.commit.committedInstType_0::FloatMemRead     54138308     11.86%     95.69% # Class of committed instruction
system.switch_cpus3.commit.committedInstType_0::FloatMemWrite     19690205      4.31%    100.00% # Class of committed instruction
system.switch_cpus3.commit.committedInstType_0::IprAccess            0      0.00%    100.00% # Class of committed instruction
system.switch_cpus3.commit.committedInstType_0::InstPrefetch            0      0.00%    100.00% # Class of committed instruction
system.switch_cpus3.commit.committedInstType_0::total    456438660                       # Class of committed instruction
system.switch_cpus3.commit.commitEligibleSamples     41758379                       # number cycles where commit BW limit reached
system.switch_cpus3.decode.idleCycles         8321912                       # Number of cycles decode is idle
system.switch_cpus3.decode.blockedCycles     93176176                       # Number of cycles decode is blocked
system.switch_cpus3.decode.runCycles         60044592                       # Number of cycles decode is running
system.switch_cpus3.decode.unblockCycles     12365543                       # Number of cycles decode is unblocking
system.switch_cpus3.decode.squashCycles        724154                       # Number of cycles decode is squashing
system.switch_cpus3.decode.branchResolved     17539523                       # Number of times decode resolved a  branch
system.switch_cpus3.decode.branchMispred         3938                       # Number of times decode detected a branch misprediction
system.switch_cpus3.decode.decodedInsts     511928734                       # Number of instructions handled by decode
system.switch_cpus3.decode.squashedInsts        20348                       # Number of squashed instructions handled by decode
system.switch_cpus3.dtb.rdAccesses           77873853                       # TLB accesses on read requests
system.switch_cpus3.dtb.wrAccesses           30631770                       # TLB accesses on write requests
system.switch_cpus3.dtb.rdMisses                24757                       # TLB misses on read requests
system.switch_cpus3.dtb.wrMisses                11409                       # TLB misses on write requests
system.switch_cpus3.dtb.walker.power_state.pwrStateResidencyTicks::UNDEFINED 18204624786699                       # Cumulative time (in ticks) in various power states
system.switch_cpus3.fetch.icacheStallCycles      1201490                       # Number of cycles fetch is stalled on an Icache miss
system.switch_cpus3.fetch.insts             284938609                       # Number of instructions fetch has processed
system.switch_cpus3.fetch.branches           38201973                       # Number of branches that fetch encountered
system.switch_cpus3.fetch.predictedBranches     22094950                       # Number of branches that fetch has predicted taken
system.switch_cpus3.fetch.cycles            172682389                       # Number of cycles fetch has run and was not squashing or blocked
system.switch_cpus3.fetch.squashCycles        1456060                       # Number of cycles fetch has spent squashing
system.switch_cpus3.fetch.tlbCycles                 1                       # Number of cycles fetch has spent waiting for tlb
system.switch_cpus3.fetch.miscStallCycles         2676                       # Number of cycles fetch has spent waiting on interrupts,or bad addresses, or out of MSHRs
system.switch_cpus3.fetch.pendingTrapStallCycles        17795                       # Number of stall cycles due to pending traps
system.switch_cpus3.fetch.cacheLines         36824470                       # Number of cache lines fetched
system.switch_cpus3.fetch.icacheSquashes         9939                       # Number of outstanding Icache misses that were squashed
system.switch_cpus3.fetch.nisnDist::samples    174632381                       # Number of instructions fetched each cycle (Total)
system.switch_cpus3.fetch.nisnDist::mean     3.005821                       # Number of instructions fetched each cycle (Total)
system.switch_cpus3.fetch.nisnDist::stdev     3.485203                       # Number of instructions fetched each cycle (Total)
system.switch_cpus3.fetch.nisnDist::underflows            0      0.00%      0.00% # Number of instructions fetched each cycle (Total)
system.switch_cpus3.fetch.nisnDist::0        88491290     50.67%     50.67% # Number of instructions fetched each cycle (Total)
system.switch_cpus3.fetch.nisnDist::1         5302295      3.04%     53.71% # Number of instructions fetched each cycle (Total)
system.switch_cpus3.fetch.nisnDist::2         4945035      2.83%     56.54% # Number of instructions fetched each cycle (Total)
system.switch_cpus3.fetch.nisnDist::3         8471230      4.85%     61.39% # Number of instructions fetched each cycle (Total)
system.switch_cpus3.fetch.nisnDist::4         4977899      2.85%     64.24% # Number of instructions fetched each cycle (Total)
system.switch_cpus3.fetch.nisnDist::5         6441617      3.69%     67.93% # Number of instructions fetched each cycle (Total)
system.switch_cpus3.fetch.nisnDist::6         5166426      2.96%     70.89% # Number of instructions fetched each cycle (Total)
system.switch_cpus3.fetch.nisnDist::7         5503331      3.15%     74.04% # Number of instructions fetched each cycle (Total)
system.switch_cpus3.fetch.nisnDist::8        45333258     25.96%    100.00% # Number of instructions fetched each cycle (Total)
system.switch_cpus3.fetch.nisnDist::overflows            0      0.00%    100.00% # Number of instructions fetched each cycle (Total)
system.switch_cpus3.fetch.nisnDist::min_value            0                       # Number of instructions fetched each cycle (Total)
system.switch_cpus3.fetch.nisnDist::max_value            8                       # Number of instructions fetched each cycle (Total)
system.switch_cpus3.fetch.nisnDist::total    174632381                       # Number of instructions fetched each cycle (Total)
system.switch_cpus3.fetch.branchRate         0.218164                       # Number of branch fetches per cycle
system.switch_cpus3.fetch.rate               1.627232                       # Number of inst fetches per cycle
system.switch_cpus3.itb.rdAccesses                  0                       # TLB accesses on read requests
system.switch_cpus3.itb.wrAccesses           36827429                       # TLB accesses on write requests
system.switch_cpus3.itb.rdMisses                    0                       # TLB misses on read requests
system.switch_cpus3.itb.wrMisses                 3029                       # TLB misses on write requests
system.switch_cpus3.itb.walker.power_state.pwrStateResidencyTicks::UNDEFINED 18204624786699                       # Cumulative time (in ticks) in various power states
system.switch_cpus3.lsq0.forwLoads            5321281                       # Number of loads that had data forwarded from stores
system.switch_cpus3.lsq0.squashedLoads        7741306                       # Number of loads squashed
system.switch_cpus3.lsq0.ignoredResponses         1594                       # Number of memory responses ignored because the instruction is squashed
system.switch_cpus3.lsq0.memOrderViolation        10708                       # Number of memory ordering violations
system.switch_cpus3.lsq0.squashedStores       6548843                       # Number of stores squashed
system.switch_cpus3.lsq0.rescheduledLoads      1005232                       # Number of loads that were rescheduled
system.switch_cpus3.lsq0.blockedByCache          8977                       # Number of times an access to memory failed due to the cache being blocked
system.switch_cpus3.power_state.pwrStateResidencyTicks::OFF  58310415216                       # Cumulative time (in ticks) in various power states
system.switch_cpus3.rename.squashCycles        724154                       # Number of cycles rename is squashing
system.switch_cpus3.rename.idleCycles        13176490                       # Number of cycles rename is idle
system.switch_cpus3.rename.blockCycles       40138386                       # Number of cycles rename is blocking
system.switch_cpus3.rename.serializeStallCycles            0                       # count of cycles rename stalledfor serializing inst
system.switch_cpus3.rename.runCycles         67135535                       # Number of cycles rename is running
system.switch_cpus3.rename.unblockCycles     53457812                       # Number of cycles rename is unblocking
system.switch_cpus3.rename.renamedInsts     506843982                       # Number of instructions processed by rename
system.switch_cpus3.rename.ROBFullEvents      1555183                       # Number of times rename has blocked due to ROB full
system.switch_cpus3.rename.IQFullEvents      12428359                       # Number of times rename has blocked due to IQ full
system.switch_cpus3.rename.LQFullEvents      14208267                       # Number of times rename has blocked due to LQ full
system.switch_cpus3.rename.SQFullEvents      24448725                       # Number of times rename has blocked due to SQ full
system.switch_cpus3.rename.renamedOperands    535980187                       # Number of destination operands rename has renamed
system.switch_cpus3.rename.lookups         1164023664                       # Number of register rename lookups that rename has made
system.switch_cpus3.rename.intLookups       435023017                       # Number of integer rename lookups
system.switch_cpus3.rename.fpLookups        323071503                       # Number of floating rename lookups
system.switch_cpus3.rename.committedMaps    486355501                       # Number of HB maps that are committed
system.switch_cpus3.rename.undoneMaps        49624652                       # Number of HB maps that are undone due to squashing
system.switch_cpus3.rename.serializing              0                       # count of serializing insts renamed
system.switch_cpus3.rename.tempSerializing            0                       # count of temporary serializing insts renamed
system.switch_cpus3.rename.skidInsts         55765041                       # count of insts added to the skid buffer
system.switch_cpus3.rob.reads               620910596                       # The number of ROB reads
system.switch_cpus3.rob.writes              995879520                       # The number of ROB writes
system.switch_cpus3.thread0.numInsts        250000002                       # Number of Instructions committed
system.switch_cpus3.thread0.numOps          456438660                       # Number of Ops committed
system.switch_cpus3.thread0.numMemRefs              0                       # Number of Memory References
system.voltage_domain.voltage                       1                       # Voltage in Volts

---------- End Simulation Statistics   ----------
