
---------- Begin Simulation Statistics ----------
final_tick                               18204779361969                       # Number of ticks from beginning of simulation (restored from checkpoints and never reset)
host_inst_rate                                 148288                       # Simulator instruction rate (inst/s)
host_mem_usage                               17498824                       # Number of bytes of host memory used
host_op_rate                                   270740                       # Simulator op (including micro ops) rate (op/s)
host_seconds                                  6741.09                       # Real time elapsed on the host
host_tick_rate                                8672931                       # Simulator tick rate (ticks/s)
sim_freq                                 1000000000000                       # Frequency of simulated ticks
sim_insts                                   999620546                       # Number of instructions simulated
sim_ops                                    1825081372                       # Number of ops (including micro ops) simulated
sim_seconds                                  0.058465                       # Number of seconds simulated
sim_ticks                                 58464984825                       # Number of ticks simulated
system.cpu0.Branches                                1                       # Number of branches fetched
system.cpu0.committedInsts                         15                       # Number of instructions committed
system.cpu0.committedOps                           26                       # Number of ops (including micro ops) committed
system.cpu0.idle_fraction                           0                       # Percentage of idle cycles
system.cpu0.l2bus.snoop_filter.hit_multi_requests          284                       # Number of requests hitting in the snoop filter with multiple (>1) holders of the requested data.
system.cpu0.l2bus.snoop_filter.hit_multi_snoops            0                       # Number of snoops hitting in the snoop filter with multiple (>1) holders of the requested data.
system.cpu0.l2bus.snoop_filter.hit_single_requests      1776412                       # Number of requests hitting in the snoop filter with a single holder of the requested data.
system.cpu0.l2bus.snoop_filter.hit_single_snoops        24530                       # Number of snoops hitting in the snoop filter with a single holder of the requested data.
system.cpu0.l2bus.snoop_filter.tot_requests      3441579                       # Total number of requests made to the snoop filter.
system.cpu0.l2bus.snoop_filter.tot_snoops        24530                       # Total number of snoops made to the snoop filter.
system.cpu0.mmucache.mmubus.snoop_filter.hit_multi_requests            0                       # Number of requests hitting in the snoop filter with multiple (>1) holders of the requested data.
system.cpu0.mmucache.mmubus.snoop_filter.hit_multi_snoops            0                       # Number of snoops hitting in the snoop filter with multiple (>1) holders of the requested data.
system.cpu0.mmucache.mmubus.snoop_filter.hit_single_requests            0                       # Number of requests hitting in the snoop filter with a single holder of the requested data.
system.cpu0.mmucache.mmubus.snoop_filter.hit_single_snoops            0                       # Number of snoops hitting in the snoop filter with a single holder of the requested data.
system.cpu0.mmucache.mmubus.snoop_filter.tot_requests            0                       # Total number of requests made to the snoop filter.
system.cpu0.mmucache.mmubus.snoop_filter.tot_snoops            0                       # Total number of snoops made to the snoop filter.
system.cpu0.not_idle_fraction                       1                       # Percentage of non-idle cycles
system.cpu0.numCycles                              31                       # number of cpu cycles simulated
system.cpu0.numWorkItemsCompleted                   0                       # number of work items this cpu completed
system.cpu0.numWorkItemsStarted                     0                       # number of work items this cpu started
system.cpu0.num_busy_cycles                        31                       # Number of busy cycles
system.cpu0.num_cc_register_reads                   9                       # number of times the CC registers were read
system.cpu0.num_cc_register_writes                  6                       # number of times the CC registers were written
system.cpu0.num_conditional_control_insts            1                       # number of instructions that are conditional controls
system.cpu0.num_fp_alu_accesses                    19                       # Number of float alu accesses
system.cpu0.num_fp_insts                           19                       # number of float instructions
system.cpu0.num_fp_register_reads                  25                       # number of times the floating registers were read
system.cpu0.num_fp_register_writes                 17                       # number of times the floating registers were written
system.cpu0.num_func_calls                          0                       # number of times a function call or return occured
system.cpu0.num_idle_cycles                         0                       # Number of idle cycles
system.cpu0.num_int_alu_accesses                   13                       # Number of integer alu accesses
system.cpu0.num_int_insts                          13                       # number of integer instructions
system.cpu0.num_int_register_reads                 29                       # number of times the integer registers were read
system.cpu0.num_int_register_writes                 6                       # number of times the integer registers were written
system.cpu0.num_load_insts                          5                       # Number of load instructions
system.cpu0.num_mem_refs                            6                       # number of memory refs
system.cpu0.num_store_insts                         1                       # Number of store instructions
system.cpu0.num_vec_alu_accesses                    0                       # Number of vector alu accesses
system.cpu0.num_vec_insts                           0                       # number of vector instructions
system.cpu0.num_vec_register_reads                  0                       # number of times the vector registers were read
system.cpu0.num_vec_register_writes                 0                       # number of times the vector registers were written
system.cpu0.op_class::No_OpClass                    0      0.00%      0.00% # Class of executed instruction
system.cpu0.op_class::IntAlu                        7     26.92%     26.92% # Class of executed instruction
system.cpu0.op_class::IntMult                       0      0.00%     26.92% # Class of executed instruction
system.cpu0.op_class::IntDiv                        0      0.00%     26.92% # Class of executed instruction
system.cpu0.op_class::FloatAdd                      4     15.38%     42.31% # Class of executed instruction
system.cpu0.op_class::FloatCmp                      0      0.00%     42.31% # Class of executed instruction
system.cpu0.op_class::FloatCvt                      0      0.00%     42.31% # Class of executed instruction
system.cpu0.op_class::FloatMult                     0      0.00%     42.31% # Class of executed instruction
system.cpu0.op_class::FloatMultAcc                  0      0.00%     42.31% # Class of executed instruction
system.cpu0.op_class::FloatDiv                      0      0.00%     42.31% # Class of executed instruction
system.cpu0.op_class::FloatMisc                     0      0.00%     42.31% # Class of executed instruction
system.cpu0.op_class::FloatSqrt                     0      0.00%     42.31% # Class of executed instruction
system.cpu0.op_class::SimdAdd                       0      0.00%     42.31% # Class of executed instruction
system.cpu0.op_class::SimdAddAcc                    0      0.00%     42.31% # Class of executed instruction
system.cpu0.op_class::SimdAlu                       2      7.69%     50.00% # Class of executed instruction
system.cpu0.op_class::SimdCmp                       0      0.00%     50.00% # Class of executed instruction
system.cpu0.op_class::SimdCvt                       0      0.00%     50.00% # Class of executed instruction
system.cpu0.op_class::SimdMisc                      0      0.00%     50.00% # Class of executed instruction
system.cpu0.op_class::SimdMult                      0      0.00%     50.00% # Class of executed instruction
system.cpu0.op_class::SimdMultAcc                   0      0.00%     50.00% # Class of executed instruction
system.cpu0.op_class::SimdShift                     0      0.00%     50.00% # Class of executed instruction
system.cpu0.op_class::SimdShiftAcc                  0      0.00%     50.00% # Class of executed instruction
system.cpu0.op_class::SimdDiv                       0      0.00%     50.00% # Class of executed instruction
system.cpu0.op_class::SimdSqrt                      0      0.00%     50.00% # Class of executed instruction
system.cpu0.op_class::SimdFloatAdd                  3     11.54%     61.54% # Class of executed instruction
system.cpu0.op_class::SimdFloatAlu                  0      0.00%     61.54% # Class of executed instruction
system.cpu0.op_class::SimdFloatCmp                  0      0.00%     61.54% # Class of executed instruction
system.cpu0.op_class::SimdFloatCvt                  1      3.85%     65.38% # Class of executed instruction
system.cpu0.op_class::SimdFloatDiv                  1      3.85%     69.23% # Class of executed instruction
system.cpu0.op_class::SimdFloatMisc                 0      0.00%     69.23% # Class of executed instruction
system.cpu0.op_class::SimdFloatMult                 2      7.69%     76.92% # Class of executed instruction
system.cpu0.op_class::SimdFloatMultAcc              0      0.00%     76.92% # Class of executed instruction
system.cpu0.op_class::SimdFloatSqrt                 0      0.00%     76.92% # Class of executed instruction
system.cpu0.op_class::SimdReduceAdd                 0      0.00%     76.92% # Class of executed instruction
system.cpu0.op_class::SimdReduceAlu                 0      0.00%     76.92% # Class of executed instruction
system.cpu0.op_class::SimdReduceCmp                 0      0.00%     76.92% # Class of executed instruction
system.cpu0.op_class::SimdFloatReduceAdd            0      0.00%     76.92% # Class of executed instruction
system.cpu0.op_class::SimdFloatReduceCmp            0      0.00%     76.92% # Class of executed instruction
system.cpu0.op_class::SimdAes                       0      0.00%     76.92% # Class of executed instruction
system.cpu0.op_class::SimdAesMix                    0      0.00%     76.92% # Class of executed instruction
system.cpu0.op_class::SimdSha1Hash                  0      0.00%     76.92% # Class of executed instruction
system.cpu0.op_class::SimdSha1Hash2                 0      0.00%     76.92% # Class of executed instruction
system.cpu0.op_class::SimdSha256Hash                0      0.00%     76.92% # Class of executed instruction
system.cpu0.op_class::SimdSha256Hash2               0      0.00%     76.92% # Class of executed instruction
system.cpu0.op_class::SimdShaSigma2                 0      0.00%     76.92% # Class of executed instruction
system.cpu0.op_class::SimdShaSigma3                 0      0.00%     76.92% # Class of executed instruction
system.cpu0.op_class::SimdPredAlu                   0      0.00%     76.92% # Class of executed instruction
system.cpu0.op_class::MemRead                       0      0.00%     76.92% # Class of executed instruction
system.cpu0.op_class::MemWrite                      0      0.00%     76.92% # Class of executed instruction
system.cpu0.op_class::FloatMemRead                  5     19.23%     96.15% # Class of executed instruction
system.cpu0.op_class::FloatMemWrite                 1      3.85%    100.00% # Class of executed instruction
system.cpu0.op_class::IprAccess                     0      0.00%    100.00% # Class of executed instruction
system.cpu0.op_class::InstPrefetch                  0      0.00%    100.00% # Class of executed instruction
system.cpu0.op_class::total                        26                       # Class of executed instruction
system.cpu0.workload.numSyscalls                    0                       # Number of system calls
system.cpu1.Branches                                1                       # Number of branches fetched
system.cpu1.committedInsts                         15                       # Number of instructions committed
system.cpu1.committedOps                           26                       # Number of ops (including micro ops) committed
system.cpu1.idle_fraction                           0                       # Percentage of idle cycles
system.cpu1.l2bus.snoop_filter.hit_multi_requests          428                       # Number of requests hitting in the snoop filter with multiple (>1) holders of the requested data.
system.cpu1.l2bus.snoop_filter.hit_multi_snoops            0                       # Number of snoops hitting in the snoop filter with multiple (>1) holders of the requested data.
system.cpu1.l2bus.snoop_filter.hit_single_requests      1775051                       # Number of requests hitting in the snoop filter with a single holder of the requested data.
system.cpu1.l2bus.snoop_filter.hit_single_snoops        24625                       # Number of snoops hitting in the snoop filter with a single holder of the requested data.
system.cpu1.l2bus.snoop_filter.tot_requests      3439115                       # Total number of requests made to the snoop filter.
system.cpu1.l2bus.snoop_filter.tot_snoops        24625                       # Total number of snoops made to the snoop filter.
system.cpu1.mmucache.mmubus.snoop_filter.hit_multi_requests            0                       # Number of requests hitting in the snoop filter with multiple (>1) holders of the requested data.
system.cpu1.mmucache.mmubus.snoop_filter.hit_multi_snoops            0                       # Number of snoops hitting in the snoop filter with multiple (>1) holders of the requested data.
system.cpu1.mmucache.mmubus.snoop_filter.hit_single_requests            0                       # Number of requests hitting in the snoop filter with a single holder of the requested data.
system.cpu1.mmucache.mmubus.snoop_filter.hit_single_snoops            0                       # Number of snoops hitting in the snoop filter with a single holder of the requested data.
system.cpu1.mmucache.mmubus.snoop_filter.tot_requests            0                       # Total number of requests made to the snoop filter.
system.cpu1.mmucache.mmubus.snoop_filter.tot_snoops            0                       # Total number of snoops made to the snoop filter.
system.cpu1.not_idle_fraction                       1                       # Percentage of non-idle cycles
system.cpu1.numCycles                              31                       # number of cpu cycles simulated
system.cpu1.numWorkItemsCompleted                   0                       # number of work items this cpu completed
system.cpu1.numWorkItemsStarted                     0                       # number of work items this cpu started
system.cpu1.num_busy_cycles                        31                       # Number of busy cycles
system.cpu1.num_cc_register_reads                   9                       # number of times the CC registers were read
system.cpu1.num_cc_register_writes                  6                       # number of times the CC registers were written
system.cpu1.num_conditional_control_insts            1                       # number of instructions that are conditional controls
system.cpu1.num_fp_alu_accesses                    19                       # Number of float alu accesses
system.cpu1.num_fp_insts                           19                       # number of float instructions
system.cpu1.num_fp_register_reads                  25                       # number of times the floating registers were read
system.cpu1.num_fp_register_writes                 17                       # number of times the floating registers were written
system.cpu1.num_func_calls                          0                       # number of times a function call or return occured
system.cpu1.num_idle_cycles                         0                       # Number of idle cycles
system.cpu1.num_int_alu_accesses                   13                       # Number of integer alu accesses
system.cpu1.num_int_insts                          13                       # number of integer instructions
system.cpu1.num_int_register_reads                 29                       # number of times the integer registers were read
system.cpu1.num_int_register_writes                 6                       # number of times the integer registers were written
system.cpu1.num_load_insts                          5                       # Number of load instructions
system.cpu1.num_mem_refs                            6                       # number of memory refs
system.cpu1.num_store_insts                         1                       # Number of store instructions
system.cpu1.num_vec_alu_accesses                    0                       # Number of vector alu accesses
system.cpu1.num_vec_insts                           0                       # number of vector instructions
system.cpu1.num_vec_register_reads                  0                       # number of times the vector registers were read
system.cpu1.num_vec_register_writes                 0                       # number of times the vector registers were written
system.cpu1.op_class::No_OpClass                    0      0.00%      0.00% # Class of executed instruction
system.cpu1.op_class::IntAlu                        7     26.92%     26.92% # Class of executed instruction
system.cpu1.op_class::IntMult                       0      0.00%     26.92% # Class of executed instruction
system.cpu1.op_class::IntDiv                        0      0.00%     26.92% # Class of executed instruction
system.cpu1.op_class::FloatAdd                      4     15.38%     42.31% # Class of executed instruction
system.cpu1.op_class::FloatCmp                      0      0.00%     42.31% # Class of executed instruction
system.cpu1.op_class::FloatCvt                      0      0.00%     42.31% # Class of executed instruction
system.cpu1.op_class::FloatMult                     0      0.00%     42.31% # Class of executed instruction
system.cpu1.op_class::FloatMultAcc                  0      0.00%     42.31% # Class of executed instruction
system.cpu1.op_class::FloatDiv                      0      0.00%     42.31% # Class of executed instruction
system.cpu1.op_class::FloatMisc                     0      0.00%     42.31% # Class of executed instruction
system.cpu1.op_class::FloatSqrt                     0      0.00%     42.31% # Class of executed instruction
system.cpu1.op_class::SimdAdd                       0      0.00%     42.31% # Class of executed instruction
system.cpu1.op_class::SimdAddAcc                    0      0.00%     42.31% # Class of executed instruction
system.cpu1.op_class::SimdAlu                       2      7.69%     50.00% # Class of executed instruction
system.cpu1.op_class::SimdCmp                       0      0.00%     50.00% # Class of executed instruction
system.cpu1.op_class::SimdCvt                       0      0.00%     50.00% # Class of executed instruction
system.cpu1.op_class::SimdMisc                      0      0.00%     50.00% # Class of executed instruction
system.cpu1.op_class::SimdMult                      0      0.00%     50.00% # Class of executed instruction
system.cpu1.op_class::SimdMultAcc                   0      0.00%     50.00% # Class of executed instruction
system.cpu1.op_class::SimdShift                     0      0.00%     50.00% # Class of executed instruction
system.cpu1.op_class::SimdShiftAcc                  0      0.00%     50.00% # Class of executed instruction
system.cpu1.op_class::SimdDiv                       0      0.00%     50.00% # Class of executed instruction
system.cpu1.op_class::SimdSqrt                      0      0.00%     50.00% # Class of executed instruction
system.cpu1.op_class::SimdFloatAdd                  3     11.54%     61.54% # Class of executed instruction
system.cpu1.op_class::SimdFloatAlu                  0      0.00%     61.54% # Class of executed instruction
system.cpu1.op_class::SimdFloatCmp                  0      0.00%     61.54% # Class of executed instruction
system.cpu1.op_class::SimdFloatCvt                  1      3.85%     65.38% # Class of executed instruction
system.cpu1.op_class::SimdFloatDiv                  1      3.85%     69.23% # Class of executed instruction
system.cpu1.op_class::SimdFloatMisc                 0      0.00%     69.23% # Class of executed instruction
system.cpu1.op_class::SimdFloatMult                 2      7.69%     76.92% # Class of executed instruction
system.cpu1.op_class::SimdFloatMultAcc              0      0.00%     76.92% # Class of executed instruction
system.cpu1.op_class::SimdFloatSqrt                 0      0.00%     76.92% # Class of executed instruction
system.cpu1.op_class::SimdReduceAdd                 0      0.00%     76.92% # Class of executed instruction
system.cpu1.op_class::SimdReduceAlu                 0      0.00%     76.92% # Class of executed instruction
system.cpu1.op_class::SimdReduceCmp                 0      0.00%     76.92% # Class of executed instruction
system.cpu1.op_class::SimdFloatReduceAdd            0      0.00%     76.92% # Class of executed instruction
system.cpu1.op_class::SimdFloatReduceCmp            0      0.00%     76.92% # Class of executed instruction
system.cpu1.op_class::SimdAes                       0      0.00%     76.92% # Class of executed instruction
system.cpu1.op_class::SimdAesMix                    0      0.00%     76.92% # Class of executed instruction
system.cpu1.op_class::SimdSha1Hash                  0      0.00%     76.92% # Class of executed instruction
system.cpu1.op_class::SimdSha1Hash2                 0      0.00%     76.92% # Class of executed instruction
system.cpu1.op_class::SimdSha256Hash                0      0.00%     76.92% # Class of executed instruction
system.cpu1.op_class::SimdSha256Hash2               0      0.00%     76.92% # Class of executed instruction
system.cpu1.op_class::SimdShaSigma2                 0      0.00%     76.92% # Class of executed instruction
system.cpu1.op_class::SimdShaSigma3                 0      0.00%     76.92% # Class of executed instruction
system.cpu1.op_class::SimdPredAlu                   0      0.00%     76.92% # Class of executed instruction
system.cpu1.op_class::MemRead                       0      0.00%     76.92% # Class of executed instruction
system.cpu1.op_class::MemWrite                      0      0.00%     76.92% # Class of executed instruction
system.cpu1.op_class::FloatMemRead                  5     19.23%     96.15% # Class of executed instruction
system.cpu1.op_class::FloatMemWrite                 1      3.85%    100.00% # Class of executed instruction
system.cpu1.op_class::IprAccess                     0      0.00%    100.00% # Class of executed instruction
system.cpu1.op_class::InstPrefetch                  0      0.00%    100.00% # Class of executed instruction
system.cpu1.op_class::total                        26                       # Class of executed instruction
system.cpu1.workload.numSyscalls                    0                       # Number of system calls
system.cpu2.Branches                                1                       # Number of branches fetched
system.cpu2.committedInsts                         15                       # Number of instructions committed
system.cpu2.committedOps                           26                       # Number of ops (including micro ops) committed
system.cpu2.idle_fraction                           0                       # Percentage of idle cycles
system.cpu2.l2bus.snoop_filter.hit_multi_requests          327                       # Number of requests hitting in the snoop filter with multiple (>1) holders of the requested data.
system.cpu2.l2bus.snoop_filter.hit_multi_snoops            0                       # Number of snoops hitting in the snoop filter with multiple (>1) holders of the requested data.
system.cpu2.l2bus.snoop_filter.hit_single_requests      1789001                       # Number of requests hitting in the snoop filter with a single holder of the requested data.
system.cpu2.l2bus.snoop_filter.hit_single_snoops        22175                       # Number of snoops hitting in the snoop filter with a single holder of the requested data.
system.cpu2.l2bus.snoop_filter.tot_requests      3466477                       # Total number of requests made to the snoop filter.
system.cpu2.l2bus.snoop_filter.tot_snoops        22175                       # Total number of snoops made to the snoop filter.
system.cpu2.mmucache.mmubus.snoop_filter.hit_multi_requests            0                       # Number of requests hitting in the snoop filter with multiple (>1) holders of the requested data.
system.cpu2.mmucache.mmubus.snoop_filter.hit_multi_snoops            0                       # Number of snoops hitting in the snoop filter with multiple (>1) holders of the requested data.
system.cpu2.mmucache.mmubus.snoop_filter.hit_single_requests            0                       # Number of requests hitting in the snoop filter with a single holder of the requested data.
system.cpu2.mmucache.mmubus.snoop_filter.hit_single_snoops            0                       # Number of snoops hitting in the snoop filter with a single holder of the requested data.
system.cpu2.mmucache.mmubus.snoop_filter.tot_requests            0                       # Total number of requests made to the snoop filter.
system.cpu2.mmucache.mmubus.snoop_filter.tot_snoops            0                       # Total number of snoops made to the snoop filter.
system.cpu2.not_idle_fraction                       1                       # Percentage of non-idle cycles
system.cpu2.numCycles                              31                       # number of cpu cycles simulated
system.cpu2.numWorkItemsCompleted                   0                       # number of work items this cpu completed
system.cpu2.numWorkItemsStarted                     0                       # number of work items this cpu started
system.cpu2.num_busy_cycles                        31                       # Number of busy cycles
system.cpu2.num_cc_register_reads                   9                       # number of times the CC registers were read
system.cpu2.num_cc_register_writes                  6                       # number of times the CC registers were written
system.cpu2.num_conditional_control_insts            1                       # number of instructions that are conditional controls
system.cpu2.num_fp_alu_accesses                    19                       # Number of float alu accesses
system.cpu2.num_fp_insts                           19                       # number of float instructions
system.cpu2.num_fp_register_reads                  25                       # number of times the floating registers were read
system.cpu2.num_fp_register_writes                 17                       # number of times the floating registers were written
system.cpu2.num_func_calls                          0                       # number of times a function call or return occured
system.cpu2.num_idle_cycles                         0                       # Number of idle cycles
system.cpu2.num_int_alu_accesses                   13                       # Number of integer alu accesses
system.cpu2.num_int_insts                          13                       # number of integer instructions
system.cpu2.num_int_register_reads                 29                       # number of times the integer registers were read
system.cpu2.num_int_register_writes                 6                       # number of times the integer registers were written
system.cpu2.num_load_insts                          5                       # Number of load instructions
system.cpu2.num_mem_refs                            6                       # number of memory refs
system.cpu2.num_store_insts                         1                       # Number of store instructions
system.cpu2.num_vec_alu_accesses                    0                       # Number of vector alu accesses
system.cpu2.num_vec_insts                           0                       # number of vector instructions
system.cpu2.num_vec_register_reads                  0                       # number of times the vector registers were read
system.cpu2.num_vec_register_writes                 0                       # number of times the vector registers were written
system.cpu2.op_class::No_OpClass                    0      0.00%      0.00% # Class of executed instruction
system.cpu2.op_class::IntAlu                        7     26.92%     26.92% # Class of executed instruction
system.cpu2.op_class::IntMult                       0      0.00%     26.92% # Class of executed instruction
system.cpu2.op_class::IntDiv                        0      0.00%     26.92% # Class of executed instruction
system.cpu2.op_class::FloatAdd                      4     15.38%     42.31% # Class of executed instruction
system.cpu2.op_class::FloatCmp                      0      0.00%     42.31% # Class of executed instruction
system.cpu2.op_class::FloatCvt                      0      0.00%     42.31% # Class of executed instruction
system.cpu2.op_class::FloatMult                     0      0.00%     42.31% # Class of executed instruction
system.cpu2.op_class::FloatMultAcc                  0      0.00%     42.31% # Class of executed instruction
system.cpu2.op_class::FloatDiv                      0      0.00%     42.31% # Class of executed instruction
system.cpu2.op_class::FloatMisc                     0      0.00%     42.31% # Class of executed instruction
system.cpu2.op_class::FloatSqrt                     0      0.00%     42.31% # Class of executed instruction
system.cpu2.op_class::SimdAdd                       0      0.00%     42.31% # Class of executed instruction
system.cpu2.op_class::SimdAddAcc                    0      0.00%     42.31% # Class of executed instruction
system.cpu2.op_class::SimdAlu                       2      7.69%     50.00% # Class of executed instruction
system.cpu2.op_class::SimdCmp                       0      0.00%     50.00% # Class of executed instruction
system.cpu2.op_class::SimdCvt                       0      0.00%     50.00% # Class of executed instruction
system.cpu2.op_class::SimdMisc                      0      0.00%     50.00% # Class of executed instruction
system.cpu2.op_class::SimdMult                      0      0.00%     50.00% # Class of executed instruction
system.cpu2.op_class::SimdMultAcc                   0      0.00%     50.00% # Class of executed instruction
system.cpu2.op_class::SimdShift                     0      0.00%     50.00% # Class of executed instruction
system.cpu2.op_class::SimdShiftAcc                  0      0.00%     50.00% # Class of executed instruction
system.cpu2.op_class::SimdDiv                       0      0.00%     50.00% # Class of executed instruction
system.cpu2.op_class::SimdSqrt                      0      0.00%     50.00% # Class of executed instruction
system.cpu2.op_class::SimdFloatAdd                  3     11.54%     61.54% # Class of executed instruction
system.cpu2.op_class::SimdFloatAlu                  0      0.00%     61.54% # Class of executed instruction
system.cpu2.op_class::SimdFloatCmp                  0      0.00%     61.54% # Class of executed instruction
system.cpu2.op_class::SimdFloatCvt                  1      3.85%     65.38% # Class of executed instruction
system.cpu2.op_class::SimdFloatDiv                  1      3.85%     69.23% # Class of executed instruction
system.cpu2.op_class::SimdFloatMisc                 0      0.00%     69.23% # Class of executed instruction
system.cpu2.op_class::SimdFloatMult                 2      7.69%     76.92% # Class of executed instruction
system.cpu2.op_class::SimdFloatMultAcc              0      0.00%     76.92% # Class of executed instruction
system.cpu2.op_class::SimdFloatSqrt                 0      0.00%     76.92% # Class of executed instruction
system.cpu2.op_class::SimdReduceAdd                 0      0.00%     76.92% # Class of executed instruction
system.cpu2.op_class::SimdReduceAlu                 0      0.00%     76.92% # Class of executed instruction
system.cpu2.op_class::SimdReduceCmp                 0      0.00%     76.92% # Class of executed instruction
system.cpu2.op_class::SimdFloatReduceAdd            0      0.00%     76.92% # Class of executed instruction
system.cpu2.op_class::SimdFloatReduceCmp            0      0.00%     76.92% # Class of executed instruction
system.cpu2.op_class::SimdAes                       0      0.00%     76.92% # Class of executed instruction
system.cpu2.op_class::SimdAesMix                    0      0.00%     76.92% # Class of executed instruction
system.cpu2.op_class::SimdSha1Hash                  0      0.00%     76.92% # Class of executed instruction
system.cpu2.op_class::SimdSha1Hash2                 0      0.00%     76.92% # Class of executed instruction
system.cpu2.op_class::SimdSha256Hash                0      0.00%     76.92% # Class of executed instruction
system.cpu2.op_class::SimdSha256Hash2               0      0.00%     76.92% # Class of executed instruction
system.cpu2.op_class::SimdShaSigma2                 0      0.00%     76.92% # Class of executed instruction
system.cpu2.op_class::SimdShaSigma3                 0      0.00%     76.92% # Class of executed instruction
system.cpu2.op_class::SimdPredAlu                   0      0.00%     76.92% # Class of executed instruction
system.cpu2.op_class::MemRead                       0      0.00%     76.92% # Class of executed instruction
system.cpu2.op_class::MemWrite                      0      0.00%     76.92% # Class of executed instruction
system.cpu2.op_class::FloatMemRead                  5     19.23%     96.15% # Class of executed instruction
system.cpu2.op_class::FloatMemWrite                 1      3.85%    100.00% # Class of executed instruction
system.cpu2.op_class::IprAccess                     0      0.00%    100.00% # Class of executed instruction
system.cpu2.op_class::InstPrefetch                  0      0.00%    100.00% # Class of executed instruction
system.cpu2.op_class::total                        26                       # Class of executed instruction
system.cpu2.workload.numSyscalls                    0                       # Number of system calls
system.cpu3.Branches                                1                       # Number of branches fetched
system.cpu3.committedInsts                         15                       # Number of instructions committed
system.cpu3.committedOps                           26                       # Number of ops (including micro ops) committed
system.cpu3.idle_fraction                           0                       # Percentage of idle cycles
system.cpu3.l2bus.snoop_filter.hit_multi_requests          408                       # Number of requests hitting in the snoop filter with multiple (>1) holders of the requested data.
system.cpu3.l2bus.snoop_filter.hit_multi_snoops            0                       # Number of snoops hitting in the snoop filter with multiple (>1) holders of the requested data.
system.cpu3.l2bus.snoop_filter.hit_single_requests      1782796                       # Number of requests hitting in the snoop filter with a single holder of the requested data.
system.cpu3.l2bus.snoop_filter.hit_single_snoops        21933                       # Number of snoops hitting in the snoop filter with a single holder of the requested data.
system.cpu3.l2bus.snoop_filter.tot_requests      3454828                       # Total number of requests made to the snoop filter.
system.cpu3.l2bus.snoop_filter.tot_snoops        21933                       # Total number of snoops made to the snoop filter.
system.cpu3.mmucache.mmubus.snoop_filter.hit_multi_requests            0                       # Number of requests hitting in the snoop filter with multiple (>1) holders of the requested data.
system.cpu3.mmucache.mmubus.snoop_filter.hit_multi_snoops            0                       # Number of snoops hitting in the snoop filter with multiple (>1) holders of the requested data.
system.cpu3.mmucache.mmubus.snoop_filter.hit_single_requests            0                       # Number of requests hitting in the snoop filter with a single holder of the requested data.
system.cpu3.mmucache.mmubus.snoop_filter.hit_single_snoops            0                       # Number of snoops hitting in the snoop filter with a single holder of the requested data.
system.cpu3.mmucache.mmubus.snoop_filter.tot_requests            0                       # Total number of requests made to the snoop filter.
system.cpu3.mmucache.mmubus.snoop_filter.tot_snoops            0                       # Total number of snoops made to the snoop filter.
system.cpu3.not_idle_fraction                       1                       # Percentage of non-idle cycles
system.cpu3.numCycles                              31                       # number of cpu cycles simulated
system.cpu3.numWorkItemsCompleted                   0                       # number of work items this cpu completed
system.cpu3.numWorkItemsStarted                     0                       # number of work items this cpu started
system.cpu3.num_busy_cycles                        31                       # Number of busy cycles
system.cpu3.num_cc_register_reads                   9                       # number of times the CC registers were read
system.cpu3.num_cc_register_writes                  6                       # number of times the CC registers were written
system.cpu3.num_conditional_control_insts            1                       # number of instructions that are conditional controls
system.cpu3.num_fp_alu_accesses                    19                       # Number of float alu accesses
system.cpu3.num_fp_insts                           19                       # number of float instructions
system.cpu3.num_fp_register_reads                  25                       # number of times the floating registers were read
system.cpu3.num_fp_register_writes                 17                       # number of times the floating registers were written
system.cpu3.num_func_calls                          0                       # number of times a function call or return occured
system.cpu3.num_idle_cycles                         0                       # Number of idle cycles
system.cpu3.num_int_alu_accesses                   13                       # Number of integer alu accesses
system.cpu3.num_int_insts                          13                       # number of integer instructions
system.cpu3.num_int_register_reads                 29                       # number of times the integer registers were read
system.cpu3.num_int_register_writes                 6                       # number of times the integer registers were written
system.cpu3.num_load_insts                          5                       # Number of load instructions
system.cpu3.num_mem_refs                            6                       # number of memory refs
system.cpu3.num_store_insts                         1                       # Number of store instructions
system.cpu3.num_vec_alu_accesses                    0                       # Number of vector alu accesses
system.cpu3.num_vec_insts                           0                       # number of vector instructions
system.cpu3.num_vec_register_reads                  0                       # number of times the vector registers were read
system.cpu3.num_vec_register_writes                 0                       # number of times the vector registers were written
system.cpu3.op_class::No_OpClass                    0      0.00%      0.00% # Class of executed instruction
system.cpu3.op_class::IntAlu                        7     26.92%     26.92% # Class of executed instruction
system.cpu3.op_class::IntMult                       0      0.00%     26.92% # Class of executed instruction
system.cpu3.op_class::IntDiv                        0      0.00%     26.92% # Class of executed instruction
system.cpu3.op_class::FloatAdd                      4     15.38%     42.31% # Class of executed instruction
system.cpu3.op_class::FloatCmp                      0      0.00%     42.31% # Class of executed instruction
system.cpu3.op_class::FloatCvt                      0      0.00%     42.31% # Class of executed instruction
system.cpu3.op_class::FloatMult                     0      0.00%     42.31% # Class of executed instruction
system.cpu3.op_class::FloatMultAcc                  0      0.00%     42.31% # Class of executed instruction
system.cpu3.op_class::FloatDiv                      0      0.00%     42.31% # Class of executed instruction
system.cpu3.op_class::FloatMisc                     0      0.00%     42.31% # Class of executed instruction
system.cpu3.op_class::FloatSqrt                     0      0.00%     42.31% # Class of executed instruction
system.cpu3.op_class::SimdAdd                       0      0.00%     42.31% # Class of executed instruction
system.cpu3.op_class::SimdAddAcc                    0      0.00%     42.31% # Class of executed instruction
system.cpu3.op_class::SimdAlu                       2      7.69%     50.00% # Class of executed instruction
system.cpu3.op_class::SimdCmp                       0      0.00%     50.00% # Class of executed instruction
system.cpu3.op_class::SimdCvt                       0      0.00%     50.00% # Class of executed instruction
system.cpu3.op_class::SimdMisc                      0      0.00%     50.00% # Class of executed instruction
system.cpu3.op_class::SimdMult                      0      0.00%     50.00% # Class of executed instruction
system.cpu3.op_class::SimdMultAcc                   0      0.00%     50.00% # Class of executed instruction
system.cpu3.op_class::SimdShift                     0      0.00%     50.00% # Class of executed instruction
system.cpu3.op_class::SimdShiftAcc                  0      0.00%     50.00% # Class of executed instruction
system.cpu3.op_class::SimdDiv                       0      0.00%     50.00% # Class of executed instruction
system.cpu3.op_class::SimdSqrt                      0      0.00%     50.00% # Class of executed instruction
system.cpu3.op_class::SimdFloatAdd                  3     11.54%     61.54% # Class of executed instruction
system.cpu3.op_class::SimdFloatAlu                  0      0.00%     61.54% # Class of executed instruction
system.cpu3.op_class::SimdFloatCmp                  0      0.00%     61.54% # Class of executed instruction
system.cpu3.op_class::SimdFloatCvt                  1      3.85%     65.38% # Class of executed instruction
system.cpu3.op_class::SimdFloatDiv                  1      3.85%     69.23% # Class of executed instruction
system.cpu3.op_class::SimdFloatMisc                 0      0.00%     69.23% # Class of executed instruction
system.cpu3.op_class::SimdFloatMult                 2      7.69%     76.92% # Class of executed instruction
system.cpu3.op_class::SimdFloatMultAcc              0      0.00%     76.92% # Class of executed instruction
system.cpu3.op_class::SimdFloatSqrt                 0      0.00%     76.92% # Class of executed instruction
system.cpu3.op_class::SimdReduceAdd                 0      0.00%     76.92% # Class of executed instruction
system.cpu3.op_class::SimdReduceAlu                 0      0.00%     76.92% # Class of executed instruction
system.cpu3.op_class::SimdReduceCmp                 0      0.00%     76.92% # Class of executed instruction
system.cpu3.op_class::SimdFloatReduceAdd            0      0.00%     76.92% # Class of executed instruction
system.cpu3.op_class::SimdFloatReduceCmp            0      0.00%     76.92% # Class of executed instruction
system.cpu3.op_class::SimdAes                       0      0.00%     76.92% # Class of executed instruction
system.cpu3.op_class::SimdAesMix                    0      0.00%     76.92% # Class of executed instruction
system.cpu3.op_class::SimdSha1Hash                  0      0.00%     76.92% # Class of executed instruction
system.cpu3.op_class::SimdSha1Hash2                 0      0.00%     76.92% # Class of executed instruction
system.cpu3.op_class::SimdSha256Hash                0      0.00%     76.92% # Class of executed instruction
system.cpu3.op_class::SimdSha256Hash2               0      0.00%     76.92% # Class of executed instruction
system.cpu3.op_class::SimdShaSigma2                 0      0.00%     76.92% # Class of executed instruction
system.cpu3.op_class::SimdShaSigma3                 0      0.00%     76.92% # Class of executed instruction
system.cpu3.op_class::SimdPredAlu                   0      0.00%     76.92% # Class of executed instruction
system.cpu3.op_class::MemRead                       0      0.00%     76.92% # Class of executed instruction
system.cpu3.op_class::MemWrite                      0      0.00%     76.92% # Class of executed instruction
system.cpu3.op_class::FloatMemRead                  5     19.23%     96.15% # Class of executed instruction
system.cpu3.op_class::FloatMemWrite                 1      3.85%    100.00% # Class of executed instruction
system.cpu3.op_class::IprAccess                     0      0.00%    100.00% # Class of executed instruction
system.cpu3.op_class::InstPrefetch                  0      0.00%    100.00% # Class of executed instruction
system.cpu3.op_class::total                        26                       # Class of executed instruction
system.cpu3.workload.numSyscalls                    0                       # Number of system calls
system.l3bus.snoop_filter.hit_multi_requests            0                       # Number of requests hitting in the snoop filter with multiple (>1) holders of the requested data.
system.l3bus.snoop_filter.hit_multi_snoops            0                       # Number of snoops hitting in the snoop filter with multiple (>1) holders of the requested data.
system.l3bus.snoop_filter.hit_single_requests      4728898                       # Number of requests hitting in the snoop filter with a single holder of the requested data.
system.l3bus.snoop_filter.hit_single_snoops            0                       # Number of snoops hitting in the snoop filter with a single holder of the requested data.
system.l3bus.snoop_filter.tot_requests        9475297                       # Total number of requests made to the snoop filter.
system.l3bus.snoop_filter.tot_snoops                0                       # Total number of snoops made to the snoop filter.
system.membus.snoop_filter.hit_multi_requests            0                       # Number of requests hitting in the snoop filter with multiple (>1) holders of the requested data.
system.membus.snoop_filter.hit_multi_snoops            0                       # Number of snoops hitting in the snoop filter with multiple (>1) holders of the requested data.
system.membus.snoop_filter.hit_single_requests       888877                       # Number of requests hitting in the snoop filter with a single holder of the requested data.
system.membus.snoop_filter.hit_single_snoops            0                       # Number of snoops hitting in the snoop filter with a single holder of the requested data.
system.membus.snoop_filter.tot_requests       1853698                       # Total number of requests made to the snoop filter.
system.membus.snoop_filter.tot_snoops               0                       # Total number of snoops made to the snoop filter.
system.switch_cpus0.cc_regfile_reads        193084269                       # number of cc regfile reads
system.switch_cpus0.cc_regfile_writes       110331737                       # number of cc regfile writes
system.switch_cpus0.committedInsts          249849347                       # Number of Instructions Simulated
system.switch_cpus0.committedOps            456170360                       # Number of Ops (including micro ops) Simulated
system.switch_cpus0.cpi                      0.702705                       # CPI: Cycles Per Instruction
system.switch_cpus0.cpi_total                0.702705                       # CPI: Total CPI of All Threads
system.switch_cpus0.fp_regfile_reads        309299699                       # number of floating regfile reads
system.switch_cpus0.fp_regfile_writes       225680085                       # number of floating regfile writes
system.switch_cpus0.idleCycles                 549928                       # Total number of cycles that the CPU has spent unscheduled due to idling
system.switch_cpus0.iew.branchMispredicts       619442                       # Number of branch mispredicts detected at execute
system.switch_cpus0.iew.exec_branches        34838369                       # Number of branches executed
system.switch_cpus0.iew.exec_nop                    0                       # number of nop insts executed
system.switch_cpus0.iew.exec_rate            2.795217                       # Inst execution rate
system.switch_cpus0.iew.exec_refs           107676396                       # number of memory reference insts executed
system.switch_cpus0.iew.exec_stores          30538604                       # Number of stores executed
system.switch_cpus0.iew.exec_swp                    0                       # number of swp insts executed
system.switch_cpus0.iew.iewBlockCycles       23372252                       # Number of cycles IEW is blocking
system.switch_cpus0.iew.iewDispLoadInsts     77022588                       # Number of dispatched load instructions
system.switch_cpus0.iew.iewDispNonSpecInsts         2129                       # Number of dispatched non-speculative instructions
system.switch_cpus0.iew.iewDispSquashedInsts        14065                       # Number of squashed instructions skipped by dispatch
system.switch_cpus0.iew.iewDispStoreInsts     32703531                       # Number of dispatched store instructions
system.switch_cpus0.iew.iewDispatchedInsts    499971263                       # Number of instructions dispatched to IQ
system.switch_cpus0.iew.iewExecLoadInsts     77137792                       # Number of load instructions executed
system.switch_cpus0.iew.iewExecSquashedInsts      2038441                       # Number of squashed instructions skipped in execute
system.switch_cpus0.iew.iewExecutedInsts    490757560                       # Number of executed instructions
system.switch_cpus0.iew.iewIQFullEvents        169377                       # Number of times the IQ has become full, causing a stall
system.switch_cpus0.iew.iewIdleCycles               0                       # Number of cycles IEW is idle
system.switch_cpus0.iew.iewLSQFullEvents      6496951                       # Number of times the LSQ has become full, causing a stall
system.switch_cpus0.iew.iewSquashCycles        724511                       # Number of cycles IEW is squashing
system.switch_cpus0.iew.iewUnblockCycles      6718426                       # Number of cycles IEW is unblocking
system.switch_cpus0.iew.memOrderViolationEvents        10884                       # Number of memory order violations
system.switch_cpus0.iew.predictedNotTakenIncorrect       226522                       # Number of branches that were predicted not taken incorrectly
system.switch_cpus0.iew.predictedTakenIncorrect       392920                       # Number of branches that were predicted taken incorrectly
system.switch_cpus0.iew.wb_consumers        536430774                       # num instructions consuming a value
system.switch_cpus0.iew.wb_count            487360499                       # cumulative count of insts written-back
system.switch_cpus0.iew.wb_fanout            0.600157                       # average fanout of values written-back
system.switch_cpus0.iew.wb_producers        321942511                       # num instructions producing a value
system.switch_cpus0.iew.wb_rate              2.775868                       # insts written-back per cycle
system.switch_cpus0.iew.wb_sent             489246563                       # cumulative count of insts sent to commit
system.switch_cpus0.int_regfile_reads       419791078                       # number of integer regfile reads
system.switch_cpus0.int_regfile_writes      182804391                       # number of integer regfile writes
system.switch_cpus0.ipc                      1.423071                       # IPC: Instructions Per Cycle
system.switch_cpus0.ipc_total                1.423071                       # IPC: Total IPC of All Threads
system.switch_cpus0.iq.FU_type_0::No_OpClass      1570842      0.32%      0.32% # Type of FU issued
system.switch_cpus0.iq.FU_type_0::IntAlu    222824393     45.22%     45.54% # Type of FU issued
system.switch_cpus0.iq.FU_type_0::IntMult        11440      0.00%     45.54% # Type of FU issued
system.switch_cpus0.iq.FU_type_0::IntDiv            0      0.00%     45.54% # Type of FU issued
system.switch_cpus0.iq.FU_type_0::FloatAdd     68811755     13.96%     59.50% # Type of FU issued
system.switch_cpus0.iq.FU_type_0::FloatCmp            0      0.00%     59.50% # Type of FU issued
system.switch_cpus0.iq.FU_type_0::FloatCvt            0      0.00%     59.50% # Type of FU issued
system.switch_cpus0.iq.FU_type_0::FloatMult            0      0.00%     59.50% # Type of FU issued
system.switch_cpus0.iq.FU_type_0::FloatMultAcc            0      0.00%     59.50% # Type of FU issued
system.switch_cpus0.iq.FU_type_0::FloatDiv            0      0.00%     59.50% # Type of FU issued
system.switch_cpus0.iq.FU_type_0::FloatMisc            0      0.00%     59.50% # Type of FU issued
system.switch_cpus0.iq.FU_type_0::FloatSqrt            0      0.00%     59.50% # Type of FU issued
system.switch_cpus0.iq.FU_type_0::SimdAdd            0      0.00%     59.50% # Type of FU issued
system.switch_cpus0.iq.FU_type_0::SimdAddAcc            0      0.00%     59.50% # Type of FU issued
system.switch_cpus0.iq.FU_type_0::SimdAlu      9242183      1.88%     61.38% # Type of FU issued
system.switch_cpus0.iq.FU_type_0::SimdCmp            0      0.00%     61.38% # Type of FU issued
system.switch_cpus0.iq.FU_type_0::SimdCvt            0      0.00%     61.38% # Type of FU issued
system.switch_cpus0.iq.FU_type_0::SimdMisc      5714955      1.16%     62.54% # Type of FU issued
system.switch_cpus0.iq.FU_type_0::SimdMult            0      0.00%     62.54% # Type of FU issued
system.switch_cpus0.iq.FU_type_0::SimdMultAcc            0      0.00%     62.54% # Type of FU issued
system.switch_cpus0.iq.FU_type_0::SimdShift            0      0.00%     62.54% # Type of FU issued
system.switch_cpus0.iq.FU_type_0::SimdShiftAcc            0      0.00%     62.54% # Type of FU issued
system.switch_cpus0.iq.FU_type_0::SimdDiv            0      0.00%     62.54% # Type of FU issued
system.switch_cpus0.iq.FU_type_0::SimdSqrt            0      0.00%     62.54% # Type of FU issued
system.switch_cpus0.iq.FU_type_0::SimdFloatAdd     23841543      4.84%     67.37% # Type of FU issued
system.switch_cpus0.iq.FU_type_0::SimdFloatAlu            0      0.00%     67.37% # Type of FU issued
system.switch_cpus0.iq.FU_type_0::SimdFloatCmp       652192      0.13%     67.51% # Type of FU issued
system.switch_cpus0.iq.FU_type_0::SimdFloatCvt     18089005      3.67%     71.18% # Type of FU issued
system.switch_cpus0.iq.FU_type_0::SimdFloatDiv      5720727      1.16%     72.34% # Type of FU issued
system.switch_cpus0.iq.FU_type_0::SimdFloatMisc            0      0.00%     72.34% # Type of FU issued
system.switch_cpus0.iq.FU_type_0::SimdFloatMult     27062139      5.49%     77.83% # Type of FU issued
system.switch_cpus0.iq.FU_type_0::SimdFloatMultAcc            0      0.00%     77.83% # Type of FU issued
system.switch_cpus0.iq.FU_type_0::SimdFloatSqrt      1016277      0.21%     78.04% # Type of FU issued
system.switch_cpus0.iq.FU_type_0::SimdReduceAdd            0      0.00%     78.04% # Type of FU issued
system.switch_cpus0.iq.FU_type_0::SimdReduceAlu            0      0.00%     78.04% # Type of FU issued
system.switch_cpus0.iq.FU_type_0::SimdReduceCmp            0      0.00%     78.04% # Type of FU issued
system.switch_cpus0.iq.FU_type_0::SimdFloatReduceAdd            0      0.00%     78.04% # Type of FU issued
system.switch_cpus0.iq.FU_type_0::SimdFloatReduceCmp            0      0.00%     78.04% # Type of FU issued
system.switch_cpus0.iq.FU_type_0::SimdAes            0      0.00%     78.04% # Type of FU issued
system.switch_cpus0.iq.FU_type_0::SimdAesMix            0      0.00%     78.04% # Type of FU issued
system.switch_cpus0.iq.FU_type_0::SimdSha1Hash            0      0.00%     78.04% # Type of FU issued
system.switch_cpus0.iq.FU_type_0::SimdSha1Hash2            0      0.00%     78.04% # Type of FU issued
system.switch_cpus0.iq.FU_type_0::SimdSha256Hash            0      0.00%     78.04% # Type of FU issued
system.switch_cpus0.iq.FU_type_0::SimdSha256Hash2            0      0.00%     78.04% # Type of FU issued
system.switch_cpus0.iq.FU_type_0::SimdShaSigma2            0      0.00%     78.04% # Type of FU issued
system.switch_cpus0.iq.FU_type_0::SimdShaSigma3            0      0.00%     78.04% # Type of FU issued
system.switch_cpus0.iq.FU_type_0::SimdPredAlu            0      0.00%     78.04% # Type of FU issued
system.switch_cpus0.iq.FU_type_0::MemRead     17033277      3.46%     81.49% # Type of FU issued
system.switch_cpus0.iq.FU_type_0::MemWrite      7987213      1.62%     83.11% # Type of FU issued
system.switch_cpus0.iq.FU_type_0::FloatMemRead     60546812     12.29%     95.40% # Type of FU issued
system.switch_cpus0.iq.FU_type_0::FloatMemWrite     22671248      4.60%    100.00% # Type of FU issued
system.switch_cpus0.iq.FU_type_0::IprAccess            0      0.00%    100.00% # Type of FU issued
system.switch_cpus0.iq.FU_type_0::InstPrefetch            0      0.00%    100.00% # Type of FU issued
system.switch_cpus0.iq.FU_type_0::total     492796001                       # Type of FU issued
system.switch_cpus0.iq.fp_alu_accesses      272114710                       # Number of floating point alu accesses
system.switch_cpus0.iq.fp_inst_queue_reads    541758419                       # Number of floating instruction queue reads
system.switch_cpus0.iq.fp_inst_queue_wakeup_accesses    266610099                       # Number of floating instruction queue wakeup accesses
system.switch_cpus0.iq.fp_inst_queue_writes    294633912                       # Number of floating instruction queue writes
system.switch_cpus0.iq.fu_busy_cnt            4768508                       # FU busy when requested
system.switch_cpus0.iq.fu_busy_rate          0.009676                       # FU busy rate (busy events/executed inst)
system.switch_cpus0.iq.fu_full::No_OpClass            0      0.00%      0.00% # attempts to use FU when none available
system.switch_cpus0.iq.fu_full::IntAlu        1327781     27.84%     27.84% # attempts to use FU when none available
system.switch_cpus0.iq.fu_full::IntMult             0      0.00%     27.84% # attempts to use FU when none available
system.switch_cpus0.iq.fu_full::IntDiv              0      0.00%     27.84% # attempts to use FU when none available
system.switch_cpus0.iq.fu_full::FloatAdd        94109      1.97%     29.82% # attempts to use FU when none available
system.switch_cpus0.iq.fu_full::FloatCmp            0      0.00%     29.82% # attempts to use FU when none available
system.switch_cpus0.iq.fu_full::FloatCvt            0      0.00%     29.82% # attempts to use FU when none available
system.switch_cpus0.iq.fu_full::FloatMult            0      0.00%     29.82% # attempts to use FU when none available
system.switch_cpus0.iq.fu_full::FloatMultAcc            0      0.00%     29.82% # attempts to use FU when none available
system.switch_cpus0.iq.fu_full::FloatDiv            0      0.00%     29.82% # attempts to use FU when none available
system.switch_cpus0.iq.fu_full::FloatMisc            0      0.00%     29.82% # attempts to use FU when none available
system.switch_cpus0.iq.fu_full::FloatSqrt            0      0.00%     29.82% # attempts to use FU when none available
system.switch_cpus0.iq.fu_full::SimdAdd             0      0.00%     29.82% # attempts to use FU when none available
system.switch_cpus0.iq.fu_full::SimdAddAcc            0      0.00%     29.82% # attempts to use FU when none available
system.switch_cpus0.iq.fu_full::SimdAlu        190767      4.00%     33.82% # attempts to use FU when none available
system.switch_cpus0.iq.fu_full::SimdCmp             0      0.00%     33.82% # attempts to use FU when none available
system.switch_cpus0.iq.fu_full::SimdCvt             0      0.00%     33.82% # attempts to use FU when none available
system.switch_cpus0.iq.fu_full::SimdMisc        26705      0.56%     34.38% # attempts to use FU when none available
system.switch_cpus0.iq.fu_full::SimdMult            0      0.00%     34.38% # attempts to use FU when none available
system.switch_cpus0.iq.fu_full::SimdMultAcc            0      0.00%     34.38% # attempts to use FU when none available
system.switch_cpus0.iq.fu_full::SimdShift            0      0.00%     34.38% # attempts to use FU when none available
system.switch_cpus0.iq.fu_full::SimdShiftAcc            0      0.00%     34.38% # attempts to use FU when none available
system.switch_cpus0.iq.fu_full::SimdDiv             0      0.00%     34.38% # attempts to use FU when none available
system.switch_cpus0.iq.fu_full::SimdSqrt            0      0.00%     34.38% # attempts to use FU when none available
system.switch_cpus0.iq.fu_full::SimdFloatAdd        89558      1.88%     36.26% # attempts to use FU when none available
system.switch_cpus0.iq.fu_full::SimdFloatAlu            0      0.00%     36.26% # attempts to use FU when none available
system.switch_cpus0.iq.fu_full::SimdFloatCmp            2      0.00%     36.26% # attempts to use FU when none available
system.switch_cpus0.iq.fu_full::SimdFloatCvt       141226      2.96%     39.22% # attempts to use FU when none available
system.switch_cpus0.iq.fu_full::SimdFloatDiv        14557      0.31%     39.52% # attempts to use FU when none available
system.switch_cpus0.iq.fu_full::SimdFloatMisc            0      0.00%     39.52% # attempts to use FU when none available
system.switch_cpus0.iq.fu_full::SimdFloatMult        93954      1.97%     41.49% # attempts to use FU when none available
system.switch_cpus0.iq.fu_full::SimdFloatMultAcc            0      0.00%     41.49% # attempts to use FU when none available
system.switch_cpus0.iq.fu_full::SimdFloatSqrt         1008      0.02%     41.52% # attempts to use FU when none available
system.switch_cpus0.iq.fu_full::SimdReduceAdd            0      0.00%     41.52% # attempts to use FU when none available
system.switch_cpus0.iq.fu_full::SimdReduceAlu            0      0.00%     41.52% # attempts to use FU when none available
system.switch_cpus0.iq.fu_full::SimdReduceCmp            0      0.00%     41.52% # attempts to use FU when none available
system.switch_cpus0.iq.fu_full::SimdFloatReduceAdd            0      0.00%     41.52% # attempts to use FU when none available
system.switch_cpus0.iq.fu_full::SimdFloatReduceCmp            0      0.00%     41.52% # attempts to use FU when none available
system.switch_cpus0.iq.fu_full::SimdAes             0      0.00%     41.52% # attempts to use FU when none available
system.switch_cpus0.iq.fu_full::SimdAesMix            0      0.00%     41.52% # attempts to use FU when none available
system.switch_cpus0.iq.fu_full::SimdSha1Hash            0      0.00%     41.52% # attempts to use FU when none available
system.switch_cpus0.iq.fu_full::SimdSha1Hash2            0      0.00%     41.52% # attempts to use FU when none available
system.switch_cpus0.iq.fu_full::SimdSha256Hash            0      0.00%     41.52% # attempts to use FU when none available
system.switch_cpus0.iq.fu_full::SimdSha256Hash2            0      0.00%     41.52% # attempts to use FU when none available
system.switch_cpus0.iq.fu_full::SimdShaSigma2            0      0.00%     41.52% # attempts to use FU when none available
system.switch_cpus0.iq.fu_full::SimdShaSigma3            0      0.00%     41.52% # attempts to use FU when none available
system.switch_cpus0.iq.fu_full::SimdPredAlu            0      0.00%     41.52% # attempts to use FU when none available
system.switch_cpus0.iq.fu_full::MemRead        398982      8.37%     49.88% # attempts to use FU when none available
system.switch_cpus0.iq.fu_full::MemWrite       650547     13.64%     63.53% # attempts to use FU when none available
system.switch_cpus0.iq.fu_full::FloatMemRead      1107246     23.22%     86.74% # attempts to use FU when none available
system.switch_cpus0.iq.fu_full::FloatMemWrite       632066     13.26%    100.00% # attempts to use FU when none available
system.switch_cpus0.iq.fu_full::IprAccess            0      0.00%    100.00% # attempts to use FU when none available
system.switch_cpus0.iq.fu_full::InstPrefetch            0      0.00%    100.00% # attempts to use FU when none available
system.switch_cpus0.iq.int_alu_accesses     223878957                       # Number of integer alu accesses
system.switch_cpus0.iq.int_inst_queue_reads    623873472                       # Number of integer instruction queue reads
system.switch_cpus0.iq.int_inst_queue_wakeup_accesses    220750400                       # Number of integer instruction queue wakeup accesses
system.switch_cpus0.iq.int_inst_queue_writes    249148914                       # Number of integer instruction queue writes
system.switch_cpus0.iq.iqInstsAdded         499843943                       # Number of instructions added to the IQ (excludes non-spec)
system.switch_cpus0.iq.iqInstsIssued        492796001                       # Number of instructions issued
system.switch_cpus0.iq.iqNonSpecInstsAdded       127320                       # Number of non-speculative instructions added to the IQ
system.switch_cpus0.iq.iqSquashedInstsExamined     43800903                       # Number of squashed instructions iterated over during squash; mainly for profiling
system.switch_cpus0.iq.iqSquashedInstsIssued       250815                       # Number of squashed instructions issued
system.switch_cpus0.iq.iqSquashedNonSpecRemoved       114456                       # Number of squashed non-spec instructions that were removed
system.switch_cpus0.iq.iqSquashedOperandsExamined     36355031                       # Number of squashed operands that are examined and possibly removed from graph
system.switch_cpus0.iq.issued_per_cycle::samples    175020566                       # Number of insts issued each cycle
system.switch_cpus0.iq.issued_per_cycle::mean     2.815646                       # Number of insts issued each cycle
system.switch_cpus0.iq.issued_per_cycle::stdev     3.026593                       # Number of insts issued each cycle
system.switch_cpus0.iq.issued_per_cycle::underflows            0      0.00%      0.00% # Number of insts issued each cycle
system.switch_cpus0.iq.issued_per_cycle::0     76344576     43.62%     43.62% # Number of insts issued each cycle
system.switch_cpus0.iq.issued_per_cycle::1      8714183      4.98%     48.60% # Number of insts issued each cycle
system.switch_cpus0.iq.issued_per_cycle::2      9878356      5.64%     54.24% # Number of insts issued each cycle
system.switch_cpus0.iq.issued_per_cycle::3     11282395      6.45%     60.69% # Number of insts issued each cycle
system.switch_cpus0.iq.issued_per_cycle::4     11559419      6.60%     67.29% # Number of insts issued each cycle
system.switch_cpus0.iq.issued_per_cycle::5     12358456      7.06%     74.36% # Number of insts issued each cycle
system.switch_cpus0.iq.issued_per_cycle::6     11915618      6.81%     81.16% # Number of insts issued each cycle
system.switch_cpus0.iq.issued_per_cycle::7     12786247      7.31%     88.47% # Number of insts issued each cycle
system.switch_cpus0.iq.issued_per_cycle::8     20181316     11.53%    100.00% # Number of insts issued each cycle
system.switch_cpus0.iq.issued_per_cycle::overflows            0      0.00%    100.00% # Number of insts issued each cycle
system.switch_cpus0.iq.issued_per_cycle::min_value            0                       # Number of insts issued each cycle
system.switch_cpus0.iq.issued_per_cycle::max_value            8                       # Number of insts issued each cycle
system.switch_cpus0.iq.issued_per_cycle::total    175020566                       # Number of insts issued each cycle
system.switch_cpus0.iq.rate                  2.806827                       # Inst issue rate
system.switch_cpus0.iq.vec_alu_accesses             0                       # Number of vector alu accesses
system.switch_cpus0.iq.vec_inst_queue_reads            0                       # Number of vector instruction queue reads
system.switch_cpus0.iq.vec_inst_queue_wakeup_accesses            0                       # Number of vector instruction queue wakeup accesses
system.switch_cpus0.iq.vec_inst_queue_writes            0                       # Number of vector instruction queue writes
system.switch_cpus0.memDep0.conflictingLoads      3511605                       # Number of conflicting loads.
system.switch_cpus0.memDep0.conflictingStores      3252921                       # Number of conflicting stores.
system.switch_cpus0.memDep0.insertedLoads     77022588                       # Number of loads inserted to the mem dependence unit.
system.switch_cpus0.memDep0.insertedStores     32703531                       # Number of stores inserted to the mem dependence unit.
system.switch_cpus0.misc_regfile_reads      194566303                       # number of misc regfile reads
system.switch_cpus0.misc_regfile_writes             1                       # number of misc regfile writes
system.switch_cpus0.numCycles               175570494                       # number of cpu cycles simulated
system.switch_cpus0.numWorkItemsCompleted            0                       # number of work items this cpu completed
system.switch_cpus0.numWorkItemsStarted             0                       # number of work items this cpu started
system.switch_cpus0.timesIdled                  12043                       # Number of times that the entire CPU went into an idle state and unscheduled itself
system.switch_cpus1.cc_regfile_reads        193073719                       # number of cc regfile reads
system.switch_cpus1.cc_regfile_writes       110325890                       # number of cc regfile writes
system.switch_cpus1.committedInsts          249831235                       # Number of Instructions Simulated
system.switch_cpus1.committedOps            456137698                       # Number of Ops (including micro ops) Simulated
system.switch_cpus1.cpi                      0.702756                       # CPI: Cycles Per Instruction
system.switch_cpus1.cpi_total                0.702756                       # CPI: Total CPI of All Threads
system.switch_cpus1.fp_regfile_reads        309296906                       # number of floating regfile reads
system.switch_cpus1.fp_regfile_writes       225669750                       # number of floating regfile writes
system.switch_cpus1.idleCycles                 578159                       # Total number of cycles that the CPU has spent unscheduled due to idling
system.switch_cpus1.iew.branchMispredicts       619680                       # Number of branch mispredicts detected at execute
system.switch_cpus1.iew.exec_branches        34836910                       # Number of branches executed
system.switch_cpus1.iew.exec_nop                    0                       # number of nop insts executed
system.switch_cpus1.iew.exec_rate            2.795121                       # Inst execution rate
system.switch_cpus1.iew.exec_refs           107671048                       # number of memory reference insts executed
system.switch_cpus1.iew.exec_stores          30533558                       # Number of stores executed
system.switch_cpus1.iew.exec_swp                    0                       # number of swp insts executed
system.switch_cpus1.iew.iewBlockCycles       23366330                       # Number of cycles IEW is blocking
system.switch_cpus1.iew.iewDispLoadInsts     77024822                       # Number of dispatched load instructions
system.switch_cpus1.iew.iewDispNonSpecInsts         2119                       # Number of dispatched non-speculative instructions
system.switch_cpus1.iew.iewDispSquashedInsts        14135                       # Number of squashed instructions skipped by dispatch
system.switch_cpus1.iew.iewDispStoreInsts     32702313                       # Number of dispatched store instructions
system.switch_cpus1.iew.iewDispatchedInsts    499965254                       # Number of instructions dispatched to IQ
system.switch_cpus1.iew.iewExecLoadInsts     77137490                       # Number of load instructions executed
system.switch_cpus1.iew.iewExecSquashedInsts      2040114                       # Number of squashed instructions skipped in execute
system.switch_cpus1.iew.iewExecutedInsts    490740751                       # Number of executed instructions
system.switch_cpus1.iew.iewIQFullEvents        169619                       # Number of times the IQ has become full, causing a stall
system.switch_cpus1.iew.iewIdleCycles               0                       # Number of cycles IEW is idle
system.switch_cpus1.iew.iewLSQFullEvents      6450277                       # Number of times the LSQ has become full, causing a stall
system.switch_cpus1.iew.iewSquashCycles        724760                       # Number of cycles IEW is squashing
system.switch_cpus1.iew.iewUnblockCycles      6671813                       # Number of cycles IEW is unblocking
system.switch_cpus1.iew.memOrderViolationEvents        10862                       # Number of memory order violations
system.switch_cpus1.iew.predictedNotTakenIncorrect       226832                       # Number of branches that were predicted not taken incorrectly
system.switch_cpus1.iew.predictedTakenIncorrect       392848                       # Number of branches that were predicted taken incorrectly
system.switch_cpus1.iew.wb_consumers        536474963                       # num instructions consuming a value
system.switch_cpus1.iew.wb_count            487342958                       # cumulative count of insts written-back
system.switch_cpus1.iew.wb_fanout            0.600142                       # average fanout of values written-back
system.switch_cpus1.iew.wb_producers        321961219                       # num instructions producing a value
system.switch_cpus1.iew.wb_rate              2.775768                       # insts written-back per cycle
system.switch_cpus1.iew.wb_sent             489229127                       # cumulative count of insts sent to commit
system.switch_cpus1.int_regfile_reads       419776540                       # number of integer regfile reads
system.switch_cpus1.int_regfile_writes      182803228                       # number of integer regfile writes
system.switch_cpus1.ipc                      1.422968                       # IPC: Instructions Per Cycle
system.switch_cpus1.ipc_total                1.422968                       # IPC: Total IPC of All Threads
system.switch_cpus1.iq.FU_type_0::No_OpClass      1571089      0.32%      0.32% # Type of FU issued
system.switch_cpus1.iq.FU_type_0::IntAlu    222818405     45.22%     45.54% # Type of FU issued
system.switch_cpus1.iq.FU_type_0::IntMult        11403      0.00%     45.54% # Type of FU issued
system.switch_cpus1.iq.FU_type_0::IntDiv            0      0.00%     45.54% # Type of FU issued
system.switch_cpus1.iq.FU_type_0::FloatAdd     68805210     13.96%     59.50% # Type of FU issued
system.switch_cpus1.iq.FU_type_0::FloatCmp            0      0.00%     59.50% # Type of FU issued
system.switch_cpus1.iq.FU_type_0::FloatCvt            0      0.00%     59.50% # Type of FU issued
system.switch_cpus1.iq.FU_type_0::FloatMult            0      0.00%     59.50% # Type of FU issued
system.switch_cpus1.iq.FU_type_0::FloatMultAcc            0      0.00%     59.50% # Type of FU issued
system.switch_cpus1.iq.FU_type_0::FloatDiv            0      0.00%     59.50% # Type of FU issued
system.switch_cpus1.iq.FU_type_0::FloatMisc            0      0.00%     59.50% # Type of FU issued
system.switch_cpus1.iq.FU_type_0::FloatSqrt            0      0.00%     59.50% # Type of FU issued
system.switch_cpus1.iq.FU_type_0::SimdAdd            0      0.00%     59.50% # Type of FU issued
system.switch_cpus1.iq.FU_type_0::SimdAddAcc            0      0.00%     59.50% # Type of FU issued
system.switch_cpus1.iq.FU_type_0::SimdAlu      9242487      1.88%     61.38% # Type of FU issued
system.switch_cpus1.iq.FU_type_0::SimdCmp            0      0.00%     61.38% # Type of FU issued
system.switch_cpus1.iq.FU_type_0::SimdCvt            0      0.00%     61.38% # Type of FU issued
system.switch_cpus1.iq.FU_type_0::SimdMisc      5715472      1.16%     62.54% # Type of FU issued
system.switch_cpus1.iq.FU_type_0::SimdMult            0      0.00%     62.54% # Type of FU issued
system.switch_cpus1.iq.FU_type_0::SimdMultAcc            0      0.00%     62.54% # Type of FU issued
system.switch_cpus1.iq.FU_type_0::SimdShift            0      0.00%     62.54% # Type of FU issued
system.switch_cpus1.iq.FU_type_0::SimdShiftAcc            0      0.00%     62.54% # Type of FU issued
system.switch_cpus1.iq.FU_type_0::SimdDiv            0      0.00%     62.54% # Type of FU issued
system.switch_cpus1.iq.FU_type_0::SimdSqrt            0      0.00%     62.54% # Type of FU issued
system.switch_cpus1.iq.FU_type_0::SimdFloatAdd     23841310      4.84%     67.37% # Type of FU issued
system.switch_cpus1.iq.FU_type_0::SimdFloatAlu            0      0.00%     67.37% # Type of FU issued
system.switch_cpus1.iq.FU_type_0::SimdFloatCmp       652238      0.13%     67.51% # Type of FU issued
system.switch_cpus1.iq.FU_type_0::SimdFloatCvt     18089333      3.67%     71.18% # Type of FU issued
system.switch_cpus1.iq.FU_type_0::SimdFloatDiv      5720693      1.16%     72.34% # Type of FU issued
system.switch_cpus1.iq.FU_type_0::SimdFloatMisc            0      0.00%     72.34% # Type of FU issued
system.switch_cpus1.iq.FU_type_0::SimdFloatMult     27062469      5.49%     77.83% # Type of FU issued
system.switch_cpus1.iq.FU_type_0::SimdFloatMultAcc            0      0.00%     77.83% # Type of FU issued
system.switch_cpus1.iq.FU_type_0::SimdFloatSqrt      1016355      0.21%     78.04% # Type of FU issued
system.switch_cpus1.iq.FU_type_0::SimdReduceAdd            0      0.00%     78.04% # Type of FU issued
system.switch_cpus1.iq.FU_type_0::SimdReduceAlu            0      0.00%     78.04% # Type of FU issued
system.switch_cpus1.iq.FU_type_0::SimdReduceCmp            0      0.00%     78.04% # Type of FU issued
system.switch_cpus1.iq.FU_type_0::SimdFloatReduceAdd            0      0.00%     78.04% # Type of FU issued
system.switch_cpus1.iq.FU_type_0::SimdFloatReduceCmp            0      0.00%     78.04% # Type of FU issued
[...]
system.switch_cpus3.commit.numCommittedDist::1     13880508      8.17%     60.09% # Number of insts commited each cycle
system.switch_cpus3.commit.numCommittedDist::2      3428450      2.02%     62.11% # Number of insts commited each cycle
system.switch_cpus3.commit.numCommittedDist::3      7185094      4.23%     66.34% # Number of insts commited each cycle
system.switch_cpus3.commit.numCommittedDist::4      5753566      3.39%     69.72% # Number of insts commited each cycle
system.switch_cpus3.commit.numCommittedDist::5      3970270      2.34%     72.06% # Number of insts commited each cycle
system.switch_cpus3.commit.numCommittedDist::6      2806537      1.65%     73.71% # Number of insts commited each cycle
system.switch_cpus3.commit.numCommittedDist::7      2909170      1.71%     75.42% # Number of insts commited each cycle
system.switch_cpus3.commit.numCommittedDist::8     41746612     24.58%    100.00% # Number of insts commited each cycle
system.switch_cpus3.commit.numCommittedDist::overflows            0      0.00%    100.00% # Number of insts commited each cycle
system.switch_cpus3.commit.numCommittedDist::min_value            0                       # Number of insts commited each cycle
system.switch_cpus3.commit.numCommittedDist::max_value            8                       # Number of insts commited each cycle
system.switch_cpus3.commit.numCommittedDist::total    169871293                       # Number of insts commited each cycle
system.switch_cpus3.commit.instsCommitted    249939904                       # Number of instructions committed
system.switch_cpus3.commit.opsCommitted     456334612                       # Number of ops (including micro ops) committed
system.switch_cpus3.commit.memRefs           95501574                       # Number of memory references committed
system.switch_cpus3.commit.loads             69310697                       # Number of loads committed
system.switch_cpus3.commit.amos                     0                       # Number of atomic instructions committed
system.switch_cpus3.commit.membars               1880                       # Number of memory barriers committed
system.switch_cpus3.commit.branches          33075845                       # Number of branches committed
system.switch_cpus3.commit.vector                   0                       # Number of committed Vector instructions.
system.switch_cpus3.commit.floating         253028734                       # Number of committed floating point instructions.
system.switch_cpus3.commit.integer          282391665                       # Number of committed integer instructions.
system.switch_cpus3.commit.functionCalls      1781691                       # Number of function calls committed.
system.switch_cpus3.commit.committedInstType_0::No_OpClass       157079      0.03%      0.03% # Class of committed instruction
system.switch_cpus3.commit.committedInstType_0::IntAlu    206251222     45.20%     45.23% # Class of committed instruction
system.switch_cpus3.commit.committedInstType_0::IntMult        10866      0.00%     45.23% # Class of committed instruction
system.switch_cpus3.commit.committedInstType_0::IntDiv            0      0.00%     45.23% # Class of committed instruction
system.switch_cpus3.commit.committedInstType_0::FloatAdd     65098694     14.27%     59.50% # Class of committed instruction
system.switch_cpus3.commit.committedInstType_0::FloatCmp            0      0.00%     59.50% # Class of committed instruction
system.switch_cpus3.commit.committedInstType_0::FloatCvt            0      0.00%     59.50% # Class of committed instruction
system.switch_cpus3.commit.committedInstType_0::FloatMult            0      0.00%     59.50% # Class of committed instruction
system.switch_cpus3.commit.committedInstType_0::FloatMultAcc            0      0.00%     59.50% # Class of committed instruction
system.switch_cpus3.commit.committedInstType_0::FloatDiv            0      0.00%     59.50% # Class of committed instruction
system.switch_cpus3.commit.committedInstType_0::FloatMisc            0      0.00%     59.50% # Class of committed instruction
system.switch_cpus3.commit.committedInstType_0::FloatSqrt            0      0.00%     59.50% # Class of committed instruction
system.switch_cpus3.commit.committedInstType_0::SimdAdd            0      0.00%     59.50% # Class of committed instruction
system.switch_cpus3.commit.committedInstType_0::SimdAddAcc            0      0.00%     59.50% # Class of committed instruction
system.switch_cpus3.commit.committedInstType_0::SimdAlu      8954656      1.96%     61.46% # Class of committed instruction
system.switch_cpus3.commit.committedInstType_0::SimdCmp            0      0.00%     61.46% # Class of committed instruction
system.switch_cpus3.commit.committedInstType_0::SimdCvt            0      0.00%     61.46% # Class of committed instruction
system.switch_cpus3.commit.committedInstType_0::SimdMisc      5666285      1.24%     62.70% # Class of committed instruction
system.switch_cpus3.commit.committedInstType_0::SimdMult            0      0.00%     62.70% # Class of committed instruction
system.switch_cpus3.commit.committedInstType_0::SimdMultAcc            0      0.00%     62.70% # Class of committed instruction
system.switch_cpus3.commit.committedInstType_0::SimdShift            0      0.00%     62.70% # Class of committed instruction
system.switch_cpus3.commit.committedInstType_0::SimdShiftAcc            0      0.00%     62.70% # Class of committed instruction
system.switch_cpus3.commit.committedInstType_0::SimdDiv            0      0.00%     62.70% # Class of committed instruction
system.switch_cpus3.commit.committedInstType_0::SimdSqrt            0      0.00%     62.70% # Class of committed instruction
system.switch_cpus3.commit.committedInstType_0::SimdFloatAdd     23220005      5.09%     67.79% # Class of committed instruction
system.switch_cpus3.commit.committedInstType_0::SimdFloatAlu            0      0.00%     67.79% # Class of committed instruction
system.switch_cpus3.commit.committedInstType_0::SimdFloatCmp       645181      0.14%     67.93% # Class of committed instruction
system.switch_cpus3.commit.committedInstType_0::SimdFloatCvt     17698310      3.88%     71.81% # Class of committed instruction
system.switch_cpus3.commit.committedInstType_0::SimdFloatDiv      5533646      1.21%     73.02% # Class of committed instruction
system.switch_cpus3.commit.committedInstType_0::SimdFloatMisc            0      0.00%     73.02% # Class of committed instruction
system.switch_cpus3.commit.committedInstType_0::SimdFloatMult     26610445      5.83%     78.86% # Class of committed instruction
system.switch_cpus3.commit.committedInstType_0::SimdFloatMultAcc            0      0.00%     78.86% # Class of committed instruction
system.switch_cpus3.commit.committedInstType_0::SimdFloatSqrt       986649      0.22%     79.07% # Class of committed instruction
system.switch_cpus3.commit.committedInstType_0::SimdReduceAdd            0      0.00%     79.07% # Class of committed instruction
system.switch_cpus3.commit.committedInstType_0::SimdReduceAlu            0      0.00%     79.07% # Class of committed instruction
system.switch_cpus3.commit.committedInstType_0::SimdReduceCmp            0      0.00%     79.07% # Class of committed instruction
system.switch_cpus3.commit.committedInstType_0::SimdFloatReduceAdd            0      0.00%     79.07% # Class of committed instruction
system.switch_cpus3.commit.committedInstType_0::SimdFloatReduceCmp            0      0.00%     79.07% # Class of committed instruction
system.switch_cpus3.commit.committedInstType_0::SimdAes            0      0.00%     79.07% # Class of committed instruction
system.switch_cpus3.commit.committedInstType_0::SimdAesMix            0      0.00%     79.07% # Class of committed instruction
system.switch_cpus3.commit.committedInstType_0::SimdSha1Hash            0      0.00%     79.07% # Class of committed instruction
system.switch_cpus3.commit.committedInstType_0::SimdSha1Hash2            0      0.00%     79.07% # Class of committed instruction
system.switch_cpus3.commit.committedInstType_0::SimdSha256Hash            0      0.00%     79.07% # Class of committed instruction
system.switch_cpus3.commit.committedInstType_0::SimdSha256Hash2            0      0.00%     79.07% # Class of committed instruction
system.switch_cpus3.commit.committedInstType_0::SimdShaSigma2            0      0.00%     79.07% # Class of committed instruction
system.switch_cpus3.commit.committedInstType_0::SimdShaSigma3            0      0.00%     79.07% # Class of committed instruction
system.switch_cpus3.commit.committedInstType_0::SimdPredAlu            0      0.00%     79.07% # Class of committed instruction
system.switch_cpus3.commit.committedInstType_0::MemRead     15185636      3.33%     82.40% # Class of committed instruction
system.switch_cpus3.commit.committedInstType_0::MemWrite      6521293      1.43%     83.83% # Class of committed instruction
system.switch_cpus3.commit.committedInstType_0::FloatMemRead     54125061     11.86%     95.69% # Class of committed instruction
system.switch_cpus3.commit.committedInstType_0::FloatMemWrite     19669584      4.31%    100.00% # Class of committed instruction
system.switch_cpus3.commit.committedInstType_0::IprAccess            0      0.00%    100.00% # Class of committed instruction
system.switch_cpus3.commit.committedInstType_0::InstPrefetch            0      0.00%    100.00% # Class of committed instruction
system.switch_cpus3.commit.committedInstType_0::total    456334612                       # Class of committed instruction
system.switch_cpus3.commit.commitEligibleSamples     41746612                       # number cycles where commit BW limit reached
system.switch_cpus3.decode.idleCycles         8317993                       # Number of cycles decode is idle
system.switch_cpus3.decode.blockedCycles     93638657                       # Number of cycles decode is blocked
system.switch_cpus3.decode.runCycles         60043082                       # Number of cycles decode is running
system.switch_cpus3.decode.unblockCycles     12355385                       # Number of cycles decode is unblocking
system.switch_cpus3.decode.squashCycles        724136                       # Number of cycles decode is squashing
system.switch_cpus3.decode.branchResolved     17532287                       # Number of times decode resolved a  branch
system.switch_cpus3.decode.branchMispred         3951                       # Number of times decode detected a branch misprediction
system.switch_cpus3.decode.decodedInsts     511820620                       # Number of instructions handled by decode
system.switch_cpus3.decode.squashedInsts        20408                       # Number of squashed instructions handled by decode
system.switch_cpus3.dtb.rdAccesses           77860480                       # TLB accesses on read requests
system.switch_cpus3.dtb.wrAccesses           30611201                       # TLB accesses on write requests
system.switch_cpus3.dtb.rdMisses                24417                       # TLB misses on read requests
system.switch_cpus3.dtb.wrMisses                11396                       # TLB misses on write requests
system.switch_cpus3.dtb.walker.power_state.pwrStateResidencyTicks::UNDEFINED 18204779361969                       # Cumulative time (in ticks) in various power states
system.switch_cpus3.fetch.icacheStallCycles      1199932                       # Number of cycles fetch is stalled on an Icache miss
system.switch_cpus3.fetch.insts             284871851                       # Number of instructions fetch has processed
system.switch_cpus3.fetch.branches           38194814                       # Number of branches that fetch encountered
system.switch_cpus3.fetch.predictedBranches     22087061                       # Number of branches that fetch has predicted taken
system.switch_cpus3.fetch.cycles            173129971                       # Number of cycles fetch has run and was not squashing or blocked
system.switch_cpus3.fetch.squashCycles        1456050                       # Number of cycles fetch has spent squashing
system.switch_cpus3.fetch.tlbCycles                 1                       # Number of cycles fetch has spent waiting for tlb
system.switch_cpus3.fetch.miscStallCycles         2800                       # Number of cycles fetch has spent waiting on interrupts,or bad addresses, or out of MSHRs
system.switch_cpus3.fetch.pendingTrapStallCycles        18530                       # Number of stall cycles due to pending traps
system.switch_cpus3.fetch.cacheLines         36815398                       # Number of cache lines fetched
system.switch_cpus3.fetch.icacheSquashes         9960                       # Number of outstanding Icache misses that were squashed
system.switch_cpus3.fetch.nisnDist::samples    175079259                       # Number of instructions fetched each cycle (Total)
system.switch_cpus3.fetch.nisnDist::mean     2.997495                       # Number of instructions fetched each cycle (Total)
system.switch_cpus3.fetch.nisnDist::stdev     3.483973                       # Number of instructions fetched each cycle (Total)
system.switch_cpus3.fetch.nisnDist::underflows            0      0.00%      0.00% # Number of instructions fetched each cycle (Total)
system.switch_cpus3.fetch.nisnDist::0        88956511     50.81%     50.81% # Number of instructions fetched each cycle (Total)
system.switch_cpus3.fetch.nisnDist::1         5303750      3.03%     53.84% # Number of instructions fetched each cycle (Total)
system.switch_cpus3.fetch.nisnDist::2         4943684      2.82%     56.66% # Number of instructions fetched each cycle (Total)
system.switch_cpus3.fetch.nisnDist::3         8468685      4.84%     61.50% # Number of instructions fetched each cycle (Total)
system.switch_cpus3.fetch.nisnDist::4         4973008      2.84%     64.34% # Number of instructions fetched each cycle (Total)
system.switch_cpus3.fetch.nisnDist::5         6441050      3.68%     68.02% # Number of instructions fetched each cycle (Total)
system.switch_cpus3.fetch.nisnDist::6         5164852      2.95%     70.97% # Number of instructions fetched each cycle (Total)
system.switch_cpus3.fetch.nisnDist::7         5506168      3.14%     74.11% # Number of instructions fetched each cycle (Total)
system.switch_cpus3.fetch.nisnDist::8        45321551     25.89%    100.00% # Number of instructions fetched each cycle (Total)
system.switch_cpus3.fetch.nisnDist::overflows            0      0.00%    100.00% # Number of instructions fetched each cycle (Total)
system.switch_cpus3.fetch.nisnDist::min_value            0                       # Number of instructions fetched each cycle (Total)
system.switch_cpus3.fetch.nisnDist::max_value            8                       # Number of instructions fetched each cycle (Total)
system.switch_cpus3.fetch.nisnDist::total    175079259                       # Number of instructions fetched each cycle (Total)
system.switch_cpus3.fetch.branchRate         0.217547                       # Number of branch fetches per cycle
system.switch_cpus3.fetch.rate               1.622550                       # Number of inst fetches per cycle
system.switch_cpus3.itb.rdAccesses                  0                       # TLB accesses on read requests
system.switch_cpus3.itb.wrAccesses           36818482                       # TLB accesses on write requests
system.switch_cpus3.itb.rdMisses                    0                       # TLB misses on read requests
system.switch_cpus3.itb.wrMisses                 3154                       # TLB misses on write requests
system.switch_cpus3.itb.walker.power_state.pwrStateResidencyTicks::UNDEFINED 18204779361969                       # Cumulative time (in ticks) in various power states
system.switch_cpus3.lsq0.forwLoads            5320995                       # Number of loads that had data forwarded from stores
system.switch_cpus3.lsq0.squashedLoads        7740890                       # Number of loads squashed
system.switch_cpus3.lsq0.ignoredResponses         1579                       # Number of memory responses ignored because the instruction is squashed
system.switch_cpus3.lsq0.memOrderViolation        10710                       # Number of memory ordering violations
system.switch_cpus3.lsq0.squashedStores       6548104                       # Number of stores squashed
system.switch_cpus3.lsq0.rescheduledLoads      1005185                       # Number of loads that were rescheduled
system.switch_cpus3.lsq0.blockedByCache          8790                       # Number of times an access to memory failed due to the cache being blocked
system.switch_cpus3.power_state.pwrStateResidencyTicks::OFF  58464984825                       # Cumulative time (in ticks) in various power states
system.switch_cpus3.rename.squashCycles        724136                       # Number of cycles rename is squashing
system.switch_cpus3.rename.idleCycles        13169871                       # Number of cycles rename is idle
system.switch_cpus3.rename.blockCycles       40905249                       # Number of cycles rename is blocking
system.switch_cpus3.rename.serializeStallCycles            0                       # count of cycles rename stalledfor serializing inst
system.switch_cpus3.rename.runCycles         67125895                       # Number of cycles rename is running
system.switch_cpus3.rename.unblockCycles     53154102                       # Number of cycles rename is unblocking
system.switch_cpus3.rename.renamedInsts     506737037                       # Number of instructions processed by rename
system.switch_cpus3.rename.ROBFullEvents      1553404                       # Number of times rename has blocked due to ROB full
system.switch_cpus3.rename.IQFullEvents      12216895                       # Number of times rename has blocked due to IQ full
system.switch_cpus3.rename.LQFullEvents      14185230                       # Number of times rename has blocked due to LQ full
system.switch_cpus3.rename.SQFullEvents      24160320                       # Number of times rename has blocked due to SQ full
system.switch_cpus3.rename.renamedOperands    535861164                       # Number of destination operands rename has renamed
system.switch_cpus3.rename.lookups         1163787762                       # Number of register rename lookups that rename has made
system.switch_cpus3.rename.intLookups       434898682                       # Number of integer rename lookups
system.switch_cpus3.rename.fpLookups        323050206                       # Number of floating rename lookups
system.switch_cpus3.rename.committedMaps    486242609                       # Number of HB maps that are committed
system.switch_cpus3.rename.undoneMaps        49618555                       # Number of HB maps that are undone due to squashing
system.switch_cpus3.rename.serializing              0                       # count of serializing insts renamed
system.switch_cpus3.rename.tempSerializing            0                       # count of temporary serializing insts renamed
system.switch_cpus3.rename.skidInsts         55755334                       # count of insts added to the skid buffer
system.switch_cpus3.rob.reads               621264469                       # The number of ROB reads
system.switch_cpus3.rob.writes              995669885                       # The number of ROB writes
system.switch_cpus3.thread0.numInsts        249939904                       # Number of Instructions committed
system.switch_cpus3.thread0.numOps          456334612                       # Number of Ops committed
system.switch_cpus3.thread0.numMemRefs              0                       # Number of Memory References
system.voltage_domain.voltage                       1                       # Voltage in Volts

---------- End Simulation Statistics   ----------
