Command line:
./runscript_pride.sh mix3 AE.BASELINE.4C 4 2017
Global frequency set at 1000000000000 ticks per second
DRAM config: RowsPerBank: 65536, BanksPerRank: 32, RanksPerChannel: 1
warn: Sockets disabled, not accepting gdb connections
warn: CoherentXBar system.cpu0.mmucache.mmubus has no snooping ports attached!
warn: CoherentXBar system.cpu1.mmucache.mmubus has no snooping ports attached!
warn: CoherentXBar system.cpu2.mmucache.mmubus has no snooping ports attached!
warn: CoherentXBar system.cpu3.mmucache.mmubus has no snooping ports attached!
warn: Checkpoints for file descriptors currently do not work.
warn: Checkpoints for file descriptors currently do not work.
warn: Checkpoints for file descriptors currently do not work.
warn: Checkpoints for file descriptors currently do not work.
gem5 Simulator System.  http://gem5.org
gem5 is copyrighted software; use the --copyright option for details.

gem5 version 20.1.0.5
gem5 compiled Jul 12 2024 12:42:38
gem5 started Jul 17 2024 12:52:00
gem5 executing on a07dda8b130c, pid 86883
command line: /home/user/PrIDE/performance/gem5/build/X86/gem5.opt --outdir=/home/user/PrIDE/performance/gem5/stats/pride_multiprogram_16GBmem_250Mn.SPEC2017.C4/AE.BASELINE.4C/mix3 /home/user/PrIDE/performance/gem5/configs/example/se_rq_spec_config_multicore.py --redirects /lib64=/home/utils/gcc-6.2.0/lib64 --benchmark=mix3 --benchmark_stdout=/home/user/PrIDE/performance/gem5/stats/pride_multiprogram_16GBmem_250Mn.SPEC2017.C4/AE.BASELINE.4C/mix3/mix3.out --benchmark_stderr=/home/user/PrIDE/performance/gem5/stats/pride_multiprogram_16GBmem_250Mn.SPEC2017.C4/AE.BASELINE.4C/mix3/mix3.err --spec-version=2017 --num-cpus=4 --mem-size=16GB --mem-type=DDR5_2400_32x4 --mem-ranks=1 --checkpoint-dir=/home/user/PrIDE/performance/gem5/cpts/multiprogram_16GBmem_25Bn.SPEC2017.C4/mix3-1-ref-x86 --checkpoint-restore=25000000000 --at-instruction --cpu-type DerivO3CPU --caches --l2cache --l1d_size=32kB --l1i_size=32kB --l2_size=256kB --l1d_assoc=8 --l1i_assoc=8 --l2_assoc=16 --maxinsts=250000000 --prog-interval=300Hz

info: Standard input is not a terminal, disabling listeners.
Benchmark- 0   exchange2
Selected benchmark
--> exchange2
CMD: ['/opt/spec2017/benchspec/CPU/548.exchange2_r/run/run_base_refrate_gem5_se-m64.0000/exchange2_r_base.gem5_se-m64', '6']
CWD: /opt/spec2017/benchspec/CPU/548.exchange2_r/run/run_base_refrate_gem5_se-m64.0000/
Process stdout file: /home/user/PrIDE/performance/gem5/stats/pride_multiprogram_16GBmem_250Mn.SPEC2017.C4/AE.BASELINE.4C/mix3/mix3.out_0
Process stderr file: /home/user/PrIDE/performance/gem5/stats/pride_multiprogram_16GBmem_250Mn.SPEC2017.C4/AE.BASELINE.4C/mix3/mix3.err_0
Benchmark- 1   roms
Selected benchmark
--> roms
CMD: ['/opt/spec2017/benchspec/CPU/554.roms_r/run/run_base_refrate_gem5_se-m64.0000/roms_r_base.gem5_se-m64']
CWD: /opt/spec2017/benchspec/CPU/554.roms_r/run/run_base_refrate_gem5_se-m64.0000/
Process stdout file: /home/user/PrIDE/performance/gem5/stats/pride_multiprogram_16GBmem_250Mn.SPEC2017.C4/AE.BASELINE.4C/mix3/mix3.out_1
Process stderr file: /home/user/PrIDE/performance/gem5/stats/pride_multiprogram_16GBmem_250Mn.SPEC2017.C4/AE.BASELINE.4C/mix3/mix3.err_1
Benchmark- 2   imagick
Selected benchmark
--> imagick
CMD: ['/opt/spec2017/benchspec/CPU/538.imagick_r/run/run_base_refrate_gem5_se-m64.0000/imagick_r_base.gem5_se-m64', '-limit', 'disk', '0', '/opt/spec2017/benchspec/CPU/538.imagick_r/run/run_base_refrate_gem5_se-m64.0000/refrate_input.tga', '-edge', '41', '-resample', '181%', '-emboss', '31', '-colorspace', 'YUV', '-mean-shift', '19x19+15%', '-resize', '30%', '/opt/spec2017/benchspec/CPU/538.imagick_r/run/run_base_refrate_gem5_se-m64.0000/refrate_output.tga']
CWD: /opt/spec2017/benchspec/CPU/538.imagick_r/run/run_base_refrate_gem5_se-m64.0000/
Process stdout file: /home/user/PrIDE/performance/gem5/stats/pride_multiprogram_16GBmem_250Mn.SPEC2017.C4/AE.BASELINE.4C/mix3/mix3.out_2
Process stderr file: /home/user/PrIDE/performance/gem5/stats/pride_multiprogram_16GBmem_250Mn.SPEC2017.C4/AE.BASELINE.4C/mix3/mix3.err_2
Benchmark- 3   xz
Selected benchmark
--> xz
CMD: ['/opt/spec2017/benchspec/CPU/557.xz_r/run/run_base_refrate_gem5_se-m64.0000/xz_r_base.gem5_se-m64', '/opt/spec2017/benchspec/CPU/557.xz_r/run/run_base_refrate_gem5_se-m64.0000/cld.tar.xz', '160', '19cf30ae51eddcbefda78dd06014b4b96281456e078ca7c13e1c0c9e6aaea8dff3efb4ad6b0456697718cede6bd5454852652806a657bb56e07d61128434b474', '59796407', '61004416', '6']
CWD: /opt/spec2017/benchspec/CPU/557.xz_r/run/run_base_refrate_gem5_se-m64.0000/
Process stdout file: /home/user/PrIDE/performance/gem5/stats/pride_multiprogram_16GBmem_250Mn.SPEC2017.C4/AE.BASELINE.4C/mix3/mix3.out_3
Process stderr file: /home/user/PrIDE/performance/gem5/stats/pride_multiprogram_16GBmem_250Mn.SPEC2017.C4/AE.BASELINE.4C/mix3/mix3.err_3
Workload-0: 
['/opt/spec2017/benchspec/CPU/548.exchange2_r/run/run_base_refrate_gem5_se-m64.0000/exchange2_r_base.gem5_se-m64', '6']
Workload-1: 
['/opt/spec2017/benchspec/CPU/554.roms_r/run/run_base_refrate_gem5_se-m64.0000/roms_r_base.gem5_se-m64']
Workload-2: 
['/opt/spec2017/benchspec/CPU/538.imagick_r/run/run_base_refrate_gem5_se-m64.0000/imagick_r_base.gem5_se-m64', '-limit', 'disk', '0', '/opt/spec2017/benchspec/CPU/538.imagick_r/run/run_base_refrate_gem5_se-m64.0000/refrate_input.tga', '-edge', '41', '-resample', '181%', '-emboss', '31', '-colorspace', 'YUV', '-mean-shift', '19x19+15%', '-resize', '30%', '/opt/spec2017/benchspec/CPU/538.imagick_r/run/run_base_refrate_gem5_se-m64.0000/refrate_output.tga']
Workload-3: 
['/opt/spec2017/benchspec/CPU/557.xz_r/run/run_base_refrate_gem5_se-m64.0000/xz_r_base.gem5_se-m64', '/opt/spec2017/benchspec/CPU/557.xz_r/run/run_base_refrate_gem5_se-m64.0000/cld.tar.xz', '160', '19cf30ae51eddcbefda78dd06014b4b96281456e078ca7c13e1c0c9e6aaea8dff3efb4ad6b0456697718cede6bd5454852652806a657bb56e07d61128434b474', '59796407', '61004416', '6']
defense_enable:  False  detector:  MG  mitigation:  RRS  threshold:  800
mg_entries:  1700
rrs_tuples:  3400 rrs_swap_delay:  2740ns rit_acc_delay:  1.25ns
Switch at curTick count:10000
warn: membus.master is deprecated. `master` is now called `mem_side_ports`
warn: No dot file generated. Please install pydot to generate the dot file and pdf.
info: Entering event queue @ 14950446182073.  Starting simulation...
warn: MOVNTDQ: Ignoring non-temporal hint, modeling as cacheable!
info: Entering event queue @ 14950446192073.  Starting simulation...
warn: PowerState: Already in the requested power state, request ignored
Switched CPUS @ tick 14950446192073
switching cpus
**** REAL SIMULATION ****
info: Entering event queue @ 14950446192396.  Starting simulation...
14953779515406: Event_285: system.switch_cpus3 progress event, total committed:16317327, progress insts committed: 16317327, IPC: 001.6301
14953779515406: Event_284: system.switch_cpus2 progress event, total committed:51999465, progress insts committed: 51999465, IPC: 05.19475
14953779515406: Event_283: system.switch_cpus1 progress event, total committed:47966185, progress insts committed: 47966185, IPC: 04.79182
14953779515406: Event_282: system.switch_cpus0 progress event, total committed:34519338, progress insts committed: 34519338, IPC: 03.44848
14957112848739: Event_282: system.switch_cpus0 progress event, total committed:70993252, progress insts committed: 36473914, IPC: 03.64374
14957112848739: Event_283: system.switch_cpus1 progress event, total committed:96828191, progress insts committed: 48862006, IPC: 04.88131
14957112848739: Event_284: system.switch_cpus2 progress event, total committed:105351414, progress insts committed: 53351949, IPC: 05.32986
14957112848739: Event_285: system.switch_cpus3 progress event, total committed:32907468, progress insts committed: 16590141, IPC: 01.65736
14960446182072: Event_285: system.switch_cpus3 progress event, total committed:49560385, progress insts committed: 16652917, IPC: 01.66363
14960446182072: Event_284: system.switch_cpus2 progress event, total committed:131762110, progress insts committed: 26410696, IPC: 02.63843
14960446182072: Event_283: system.switch_cpus1 progress event, total committed:146030768, progress insts committed: 49202577, IPC: 04.91534
14960446182072: Event_282: system.switch_cpus0 progress event, total committed:107923239, progress insts committed: 36929987, IPC: 03.68931
14963779515405: Event_282: system.switch_cpus0 progress event, total committed:142600818, progress insts committed: 34677579, IPC: 03.46429
14963779515405: Event_283: system.switch_cpus1 progress event, total committed:194740443, progress insts committed: 48709675, IPC: 004.8661
14963779515405: Event_284: system.switch_cpus2 progress event, total committed:185596633, progress insts committed: 53834523, IPC: 05.37807
14963779515405: Event_285: system.switch_cpus3 progress event, total committed:66232265, progress insts committed: 16671880, IPC: 01.66552
14967112848738: Event_285: system.switch_cpus3 progress event, total committed:82685640, progress insts committed: 16453375, IPC: 01.64369
14967112848738: Event_284: system.switch_cpus2 progress event, total committed:239298128, progress insts committed: 53701495, IPC: 05.36478
14967112848738: Event_283: system.switch_cpus1 progress event, total committed:223860964, progress insts committed: 29120521, IPC: 02.90914
14967112848738: Event_282: system.switch_cpus0 progress event, total committed:178314557, progress insts committed: 35713739, IPC: 003.5678
14970446182071: Event_282: system.switch_cpus0 progress event, total committed:215290269, progress insts committed: 36975712, IPC: 03.69387
14970446182071: Event_283: system.switch_cpus1 progress event, total committed:274777944, progress insts committed: 50916980, IPC: 05.08661
14970446182071: Event_284: system.switch_cpus2 progress event, total committed:292657548, progress insts committed: 53359420, IPC: 05.33061
14970446182071: Event_285: system.switch_cpus3 progress event, total committed:99341270, progress insts committed: 16655630, IPC: 001.6639
14973779515404: Event_285: system.switch_cpus3 progress event, total committed:115791971, progress insts committed: 16450701, IPC: 01.64343
14973779515404: Event_284: system.switch_cpus2 progress event, total committed:345978992, progress insts committed: 53321444, IPC: 05.32681
14973779515404: Event_283: system.switch_cpus1 progress event, total committed:324707695, progress insts committed: 49929751, IPC: 04.98798
14973779515404: Event_282: system.switch_cpus0 progress event, total committed:252170437, progress insts committed: 36880168, IPC: 03.68433
14977112848737: Event_282: system.switch_cpus0 progress event, total committed:292017281, progress insts committed: 39846844, IPC: 003.9807
14977112848737: Event_283: system.switch_cpus1 progress event, total committed:373805025, progress insts committed: 49097330, IPC: 04.90482
14977112848737: Event_284: system.switch_cpus2 progress event, total committed:399247739, progress insts committed: 53268747, IPC: 05.32155
14977112848737: Event_285: system.switch_cpus3 progress event, total committed:132270485, progress insts committed: 16478514, IPC: 001.6462
Exiting @ tick 14978609602461 because a thread reached the max instruction count
