Command line:
./runscript_pride.sh mix3 AE.BASELINE.4C 4 2017
Global frequency set at 1000000000000 ticks per second
DRAM config: RowsPerBank: 65536, BanksPerRank: 32, RanksPerChannel: 1
warn: Sockets disabled, not accepting gdb connections
warn: CoherentXBar system.cpu0.mmucache.mmubus has no snooping ports attached!
warn: CoherentXBar system.cpu1.mmucache.mmubus has no snooping ports attached!
warn: CoherentXBar system.cpu2.mmucache.mmubus has no snooping ports attached!
warn: CoherentXBar system.cpu3.mmucache.mmubus has no snooping ports attached!
warn: Checkpoints for file descriptors currently do not work.
warn: Checkpoints for file descriptors currently do not work.
warn: Checkpoints for file descriptors currently do not work.
warn: Checkpoints for file descriptors currently do not work.
gem5 Simulator System.  http://gem5.org
gem5 is copyrighted software; use the --copyright option for details.

gem5 version 20.1.0.5
gem5 compiled Jul 12 2024 12:42:38
gem5 started Jul 31 2024 03:21:19
gem5 executing on a07dda8b130c, pid 225849
command line: /home/user/PrIDE/performance/gem5/build/X86/gem5.opt --outdir=/home/user/PrIDE/performance/gem5/stats/pride_multiprogram_16GBmem_250Mn.SPEC2017.C4/AE.BASELINE.4C/mix3 /home/user/PrIDE/performance/gem5/configs/example/se_rq_spec_config_multicore.py --redirects /lib64=/home/utils/gcc-6.2.0/lib64 --benchmark=mix3 --benchmark_stdout=/home/user/PrIDE/performance/gem5/stats/pride_multiprogram_16GBmem_250Mn.SPEC2017.C4/AE.BASELINE.4C/mix3/mix3.out --benchmark_stderr=/home/user/PrIDE/performance/gem5/stats/pride_multiprogram_16GBmem_250Mn.SPEC2017.C4/AE.BASELINE.4C/mix3/mix3.err --spec-version=2017 --num-cpus=4 --mem-size=16GB --mem-type=DDR5_2400_32x4 --mem-ranks=1 --mem-channels=1 --checkpoint-dir=/home/user/PrIDE/performance/gem5/cpts-DDR5/multiprogram_16GBmem_25Bn.SPEC2017.C4/mix3-1-ref-x86 --checkpoint-restore=25000000000 --at-instruction --cpu-type DerivO3CPU --caches --l2cache --l1d_size=32kB --l1i_size=32kB --l2_size=256kB --l3_size=4MB --l1d_assoc=8 --l1i_assoc=8 --l2_assoc=16 --l3_assoc=16 --cpu-clock=3GHz --sys-clock=3GHz --maxinsts=250000000 --prog-interval=300Hz

info: Standard input is not a terminal, disabling listeners.
Benchmark- 0   exchange2
Selected benchmark
--> exchange2
CMD: ['/opt/spec2017/benchspec/CPU/548.exchange2_r/run/run_base_refrate_gem5_se-m64.0000/exchange2_r_base.gem5_se-m64', '6']
CWD: /opt/spec2017/benchspec/CPU/548.exchange2_r/run/run_base_refrate_gem5_se-m64.0000/
Process stdout file: /home/user/PrIDE/performance/gem5/stats/pride_multiprogram_16GBmem_250Mn.SPEC2017.C4/AE.BASELINE.4C/mix3/mix3.out_0
Process stderr file: /home/user/PrIDE/performance/gem5/stats/pride_multiprogram_16GBmem_250Mn.SPEC2017.C4/AE.BASELINE.4C/mix3/mix3.err_0
Benchmark- 1   roms
Selected benchmark
--> roms
CMD: ['/opt/spec2017/benchspec/CPU/554.roms_r/run/run_base_refrate_gem5_se-m64.0000/roms_r_base.gem5_se-m64']
CWD: /opt/spec2017/benchspec/CPU/554.roms_r/run/run_base_refrate_gem5_se-m64.0000/
Process stdout file: /home/user/PrIDE/performance/gem5/stats/pride_multiprogram_16GBmem_250Mn.SPEC2017.C4/AE.BASELINE.4C/mix3/mix3.out_1
Process stderr file: /home/user/PrIDE/performance/gem5/stats/pride_multiprogram_16GBmem_250Mn.SPEC2017.C4/AE.BASELINE.4C/mix3/mix3.err_1
Benchmark- 2   imagick
Selected benchmark
--> imagick
CMD: ['/opt/spec2017/benchspec/CPU/538.imagick_r/run/run_base_refrate_gem5_se-m64.0000/imagick_r_base.gem5_se-m64', '-limit', 'disk', '0', '/opt/spec2017/benchspec/CPU/538.imagick_r/run/run_base_refrate_gem5_se-m64.0000/refrate_input.tga', '-edge', '41', '-resample', '181%', '-emboss', '31', '-colorspace', 'YUV', '-mean-shift', '19x19+15%', '-resize', '30%', '/opt/spec2017/benchspec/CPU/538.imagick_r/run/run_base_refrate_gem5_se-m64.0000/refrate_output.tga']
CWD: /opt/spec2017/benchspec/CPU/538.imagick_r/run/run_base_refrate_gem5_se-m64.0000/
Process stdout file: /home/user/PrIDE/performance/gem5/stats/pride_multiprogram_16GBmem_250Mn.SPEC2017.C4/AE.BASELINE.4C/mix3/mix3.out_2
Process stderr file: /home/user/PrIDE/performance/gem5/stats/pride_multiprogram_16GBmem_250Mn.SPEC2017.C4/AE.BASELINE.4C/mix3/mix3.err_2
Benchmark- 3   xz
Selected benchmark
--> xz
CMD: ['/opt/spec2017/benchspec/CPU/557.xz_r/run/run_base_refrate_gem5_se-m64.0000/xz_r_base.gem5_se-m64', '/opt/spec2017/benchspec/CPU/557.xz_r/run/run_base_refrate_gem5_se-m64.0000/cld.tar.xz', '160', '19cf30ae51eddcbefda78dd06014b4b96281456e078ca7c13e1c0c9e6aaea8dff3efb4ad6b0456697718cede6bd5454852652806a657bb56e07d61128434b474', '59796407', '61004416', '6']
CWD: /opt/spec2017/benchspec/CPU/557.xz_r/run/run_base_refrate_gem5_se-m64.0000/
Process stdout file: /home/user/PrIDE/performance/gem5/stats/pride_multiprogram_16GBmem_250Mn.SPEC2017.C4/AE.BASELINE.4C/mix3/mix3.out_3
Process stderr file: /home/user/PrIDE/performance/gem5/stats/pride_multiprogram_16GBmem_250Mn.SPEC2017.C4/AE.BASELINE.4C/mix3/mix3.err_3
Workload-0: 
['/opt/spec2017/benchspec/CPU/548.exchange2_r/run/run_base_refrate_gem5_se-m64.0000/exchange2_r_base.gem5_se-m64', '6']
Workload-1: 
['/opt/spec2017/benchspec/CPU/554.roms_r/run/run_base_refrate_gem5_se-m64.0000/roms_r_base.gem5_se-m64']
Workload-2: 
['/opt/spec2017/benchspec/CPU/538.imagick_r/run/run_base_refrate_gem5_se-m64.0000/imagick_r_base.gem5_se-m64', '-limit', 'disk', '0', '/opt/spec2017/benchspec/CPU/538.imagick_r/run/run_base_refrate_gem5_se-m64.0000/refrate_input.tga', '-edge', '41', '-resample', '181%', '-emboss', '31', '-colorspace', 'YUV', '-mean-shift', '19x19+15%', '-resize', '30%', '/opt/spec2017/benchspec/CPU/538.imagick_r/run/run_base_refrate_gem5_se-m64.0000/refrate_output.tga']
Workload-3: 
['/opt/spec2017/benchspec/CPU/557.xz_r/run/run_base_refrate_gem5_se-m64.0000/xz_r_base.gem5_se-m64', '/opt/spec2017/benchspec/CPU/557.xz_r/run/run_base_refrate_gem5_se-m64.0000/cld.tar.xz', '160', '19cf30ae51eddcbefda78dd06014b4b96281456e078ca7c13e1c0c9e6aaea8dff3efb4ad6b0456697718cede6bd5454852652806a657bb56e07d61128434b474', '59796407', '61004416', '6']
defense_enable:  False  detector:  MG  mitigation:  RRS  threshold:  800
mg_entries:  1700
rrs_tuples:  3400 rrs_swap_delay:  2740ns rit_acc_delay:  1.25ns
Switch at curTick count:10000
warn: membus.master is deprecated. `master` is now called `mem_side_ports`
warn: No dot file generated. Please install pydot to generate the dot file and pdf.
info: Entering event queue @ 14950446118803.  Starting simulation...
warn: MOVNTDQ: Ignoring non-temporal hint, modeling as cacheable!
warn: PowerState: Already in the requested power state, request ignored
Switched CPUS @ tick 14950446128803
switching cpus
**** REAL SIMULATION ****
info: Entering event queue @ 14950446128803.  Starting simulation...
14953779452136: Event_285: system.switch_cpus3 progress event, total committed:16317997, progress insts committed: 16317997, IPC: 01.63017
14953779452136: Event_284: system.switch_cpus2 progress event, total committed:51983613, progress insts committed: 51983613, IPC: 05.19316
14953779452136: Event_283: system.switch_cpus1 progress event, total committed:48019285, progress insts committed: 48019285, IPC: 04.79713
14953779452136: Event_282: system.switch_cpus0 progress event, total committed:34507092, progress insts committed: 34507092, IPC: 03.44726
14957112785469: Event_282: system.switch_cpus0 progress event, total committed:70982338, progress insts committed: 36475246, IPC: 03.64388
14957112785469: Event_283: system.switch_cpus1 progress event, total committed:96855511, progress insts committed: 48836226, IPC: 04.87874
14957112785469: Event_284: system.switch_cpus2 progress event, total committed:105320924, progress insts committed: 53337311, IPC: 005.3284
14957112785469: Event_285: system.switch_cpus3 progress event, total committed:32914121, progress insts committed: 16596124, IPC: 01.65795
14960446118802: Event_285: system.switch_cpus3 progress event, total committed:49565012, progress insts committed: 16650891, IPC: 01.66342
14960446118802: Event_284: system.switch_cpus2 progress event, total committed:131775197, progress insts committed: 26454273, IPC: 02.64278
14960446118802: Event_283: system.switch_cpus1 progress event, total committed:146076891, progress insts committed: 49221380, IPC: 04.91722
14960446118802: Event_282: system.switch_cpus0 progress event, total committed:107912247, progress insts committed: 36929909, IPC: 003.6893
14963779452135: Event_282: system.switch_cpus0 progress event, total committed:142589151, progress insts committed: 34676904, IPC: 03.46422
14963779452135: Event_283: system.switch_cpus1 progress event, total committed:194802598, progress insts committed: 48725707, IPC: 004.8677
14963779452135: Event_284: system.switch_cpus2 progress event, total committed:185609753, progress insts committed: 53834556, IPC: 05.37807
14963779452135: Event_285: system.switch_cpus3 progress event, total committed:66238103, progress insts committed: 16673091, IPC: 01.66564
14967112785468: Event_285: system.switch_cpus3 progress event, total committed:82715811, progress insts committed: 16477708, IPC: 01.64612
14967112785468: Event_284: system.switch_cpus2 progress event, total committed:239310280, progress insts committed: 53700527, IPC: 05.36468
14967112785468: Event_283: system.switch_cpus1 progress event, total committed:223970387, progress insts committed: 29167789, IPC: 02.91386
14967112785468: Event_282: system.switch_cpus0 progress event, total committed:178303090, progress insts committed: 35713939, IPC: 03.56782
14970446118801: Event_282: system.switch_cpus0 progress event, total committed:215281670, progress insts committed: 36978580, IPC: 03.69416
14970446118801: Event_283: system.switch_cpus1 progress event, total committed:274774375, progress insts committed: 50803988, IPC: 05.07532
14970446118801: Event_284: system.switch_cpus2 progress event, total committed:292644689, progress insts committed: 53334409, IPC: 05.32811
14970446118801: Event_285: system.switch_cpus3 progress event, total committed:99369422, progress insts committed: 16653611, IPC: 001.6637
14973779452134: Event_285: system.switch_cpus3 progress event, total committed:115827109, progress insts committed: 16457687, IPC: 01.64412
14973779452134: Event_284: system.switch_cpus2 progress event, total committed:345949159, progress insts committed: 53304470, IPC: 05.32512
14973779452134: Event_283: system.switch_cpus1 progress event, total committed:324847659, progress insts committed: 50073284, IPC: 05.00232
14973779452134: Event_282: system.switch_cpus0 progress event, total committed:252159972, progress insts committed: 36878302, IPC: 03.68414
14977112785467: Event_282: system.switch_cpus0 progress event, total committed:292001378, progress insts committed: 39841406, IPC: 03.98016
14977112785467: Event_283: system.switch_cpus1 progress event, total committed:373874775, progress insts committed: 49027116, IPC: 04.89781
14977112785467: Event_284: system.switch_cpus2 progress event, total committed:399203493, progress insts committed: 53254334, IPC: 05.32011
14977112785467: Event_285: system.switch_cpus3 progress event, total committed:132283467, progress insts committed: 16456358, IPC: 01.64399
Exiting @ tick 14978609614449 because a thread reached the max instruction count
