Command line:
./runscript_pride.sh nab RFM10.BR2.4C 4 2017 --rh_defense --rh_mitigation=RFM --rh_rfm_per_trefi=10 --rh_rfm_blast_radius=2 --rh_rfm_maxacts_per_trefi=79
Global frequency set at 1000000000000 ticks per second
RFM details - rfm_act_threshold: 7, blast_radius: 2, delay_per_rfm: 175000 ps. sample_rate: 0.125000
RH Defense config: RFM, Bus Delay: 0, rfms_per_trefi: 10, rfm_act_threshold: 7, blast_radius: 2,rfm_delay_per_act: 45000 ps.
DRAM config: RowsPerBank: 65536, BanksPerRank: 32, RanksPerChannel: 1
warn: Sockets disabled, not accepting gdb connections
warn: CoherentXBar system.cpu0.mmucache.mmubus has no snooping ports attached!
warn: CoherentXBar system.cpu1.mmucache.mmubus has no snooping ports attached!
warn: CoherentXBar system.cpu2.mmucache.mmubus has no snooping ports attached!
warn: CoherentXBar system.cpu3.mmucache.mmubus has no snooping ports attached!
warn: Checkpoints for file descriptors currently do not work.
warn: Checkpoints for file descriptors currently do not work.
warn: Checkpoints for file descriptors currently do not work.
warn: Checkpoints for file descriptors currently do not work.
gem5 Simulator System.  http://gem5.org
gem5 is copyrighted software; use the --copyright option for details.

gem5 version 20.1.0.5
gem5 compiled Jul 12 2024 12:42:38
gem5 started Aug  1 2024 19:07:15
gem5 executing on a07dda8b130c, pid 251382
command line: /home/user/PrIDE/performance/gem5/build/X86/gem5.opt --outdir=/home/user/PrIDE/performance/gem5/stats/pride_multiprogram_16GBmem_250Mn.SPEC2017.C4/RFM10.BR2.4C/nab /home/user/PrIDE/performance/gem5/configs/example/se_rq_spec_config_multicore.py --redirects /lib64=/home/utils/gcc-6.2.0/lib64 --benchmark=nab --benchmark_stdout=/home/user/PrIDE/performance/gem5/stats/pride_multiprogram_16GBmem_250Mn.SPEC2017.C4/RFM10.BR2.4C/nab/nab.out --benchmark_stderr=/home/user/PrIDE/performance/gem5/stats/pride_multiprogram_16GBmem_250Mn.SPEC2017.C4/RFM10.BR2.4C/nab/nab.err --spec-version=2017 --rh_defense --rh_mitigation=RFM --rh_rfm_per_trefi=10 --rh_rfm_blast_radius=2 --rh_rfm_maxacts_per_trefi=79 --num-cpus=4 --mem-size=16GB --mem-type=DDR5_2400_32x4 --mem-ranks=1 --mem-channels=1 --checkpoint-dir=/home/user/PrIDE/performance/gem5/cpts-DDR5/multiprogram_16GBmem_25Bn.SPEC2017.C4/nab-1-ref-x86 --checkpoint-restore=25000000000 --at-instruction --cpu-type DerivO3CPU --caches --l2cache --l1d_size=32kB --l1i_size=32kB --l2_size=256kB --l3_size=4MB --l1d_assoc=8 --l1i_assoc=8 --l2_assoc=16 --l3_assoc=16 --cpu-clock=3GHz --sys-clock=3GHz --maxinsts=250000000 --prog-interval=300Hz

info: Standard input is not a terminal, disabling listeners.
Benchmark- 0   nab
Selected benchmark
--> nab
CMD: ['/opt/spec2017/benchspec/CPU/544.nab_r/run/run_base_refrate_gem5_se-m64.0000/nab_r_base.gem5_se-m64', '1am0', '1122214447', '122']
CWD: /opt/spec2017/benchspec/CPU/544.nab_r/run/run_base_refrate_gem5_se-m64.0000/
Process stdout file: /home/user/PrIDE/performance/gem5/stats/pride_multiprogram_16GBmem_250Mn.SPEC2017.C4/RFM10.BR2.4C/nab/nab.out_0
Process stderr file: /home/user/PrIDE/performance/gem5/stats/pride_multiprogram_16GBmem_250Mn.SPEC2017.C4/RFM10.BR2.4C/nab/nab.err_0
Benchmark- 1   nab
Selected benchmark
--> nab
CMD: ['/opt/spec2017/benchspec/CPU/544.nab_r/run/run_base_refrate_gem5_se-m64.0000/nab_r_base.gem5_se-m64', '1am0', '1122214447', '122']
CWD: /opt/spec2017/benchspec/CPU/544.nab_r/run/run_base_refrate_gem5_se-m64.0000/
Process stdout file: /home/user/PrIDE/performance/gem5/stats/pride_multiprogram_16GBmem_250Mn.SPEC2017.C4/RFM10.BR2.4C/nab/nab.out_1
Process stderr file: /home/user/PrIDE/performance/gem5/stats/pride_multiprogram_16GBmem_250Mn.SPEC2017.C4/RFM10.BR2.4C/nab/nab.err_1
Benchmark- 2   nab
Selected benchmark
--> nab
CMD: ['/opt/spec2017/benchspec/CPU/544.nab_r/run/run_base_refrate_gem5_se-m64.0000/nab_r_base.gem5_se-m64', '1am0', '1122214447', '122']
CWD: /opt/spec2017/benchspec/CPU/544.nab_r/run/run_base_refrate_gem5_se-m64.0000/
Process stdout file: /home/user/PrIDE/performance/gem5/stats/pride_multiprogram_16GBmem_250Mn.SPEC2017.C4/RFM10.BR2.4C/nab/nab.out_2
Process stderr file: /home/user/PrIDE/performance/gem5/stats/pride_multiprogram_16GBmem_250Mn.SPEC2017.C4/RFM10.BR2.4C/nab/nab.err_2
Benchmark- 3   nab
Selected benchmark
--> nab
CMD: ['/opt/spec2017/benchspec/CPU/544.nab_r/run/run_base_refrate_gem5_se-m64.0000/nab_r_base.gem5_se-m64', '1am0', '1122214447', '122']
CWD: /opt/spec2017/benchspec/CPU/544.nab_r/run/run_base_refrate_gem5_se-m64.0000/
Process stdout file: /home/user/PrIDE/performance/gem5/stats/pride_multiprogram_16GBmem_250Mn.SPEC2017.C4/RFM10.BR2.4C/nab/nab.out_3
Process stderr file: /home/user/PrIDE/performance/gem5/stats/pride_multiprogram_16GBmem_250Mn.SPEC2017.C4/RFM10.BR2.4C/nab/nab.err_3
Workload-0: 
['/opt/spec2017/benchspec/CPU/544.nab_r/run/run_base_refrate_gem5_se-m64.0000/nab_r_base.gem5_se-m64', '1am0', '1122214447', '122']
Workload-1: 
['/opt/spec2017/benchspec/CPU/544.nab_r/run/run_base_refrate_gem5_se-m64.0000/nab_r_base.gem5_se-m64', '1am0', '1122214447', '122']
Workload-2: 
['/opt/spec2017/benchspec/CPU/544.nab_r/run/run_base_refrate_gem5_se-m64.0000/nab_r_base.gem5_se-m64', '1am0', '1122214447', '122']
Workload-3: 
['/opt/spec2017/benchspec/CPU/544.nab_r/run/run_base_refrate_gem5_se-m64.0000/nab_r_base.gem5_se-m64', '1am0', '1122214447', '122']
defense_enable:  True  detector:  MG  mitigation:  RFM  threshold:  800
mg_entries:  1700
rfm_maxacts_per_trefi:  79 rfm_per_trefi:  10 rfm_blast_radius:  2
Switch at curTick count:10000
warn: membus.master is deprecated. `master` is now called `mem_side_ports`
warn: No dot file generated. Please install pydot to generate the dot file and pdf.
info: Entering event queue @ 16891902834354.  Starting simulation...
warn: PowerState: Already in the requested power state, request ignored
Switched CPUS @ tick 16891902844354
switching cpus
**** REAL SIMULATION ****
info: Entering event queue @ 16891902844354.  Starting simulation...
16895236167687: Event_285: system.switch_cpus3 progress event, total committed:26554843, progress insts committed: 26554843, IPC: 02.65283
16895236167687: Event_284: system.switch_cpus2 progress event, total committed:26565140, progress insts committed: 26565140, IPC: 02.65386
16895236167687: Event_283: system.switch_cpus1 progress event, total committed:26554843, progress insts committed: 26554843, IPC: 02.65283
16895236167687: Event_282: system.switch_cpus0 progress event, total committed:26565140, progress insts committed: 26565140, IPC: 02.65386
16898569501020: Event_282: system.switch_cpus0 progress event, total committed:49209506, progress insts committed: 22644366, IPC: 02.26217
16898569501020: Event_283: system.switch_cpus1 progress event, total committed:49152119, progress insts committed: 22597276, IPC: 02.25747
16898569501020: Event_284: system.switch_cpus2 progress event, total committed:49157049, progress insts committed: 22591909, IPC: 02.25693
16898569501020: Event_285: system.switch_cpus3 progress event, total committed:49156918, progress insts committed: 22602075, IPC: 02.25795
16901902834353: Event_285: system.switch_cpus3 progress event, total committed:78362291, progress insts committed: 29205373, IPC: 02.91762
16901902834353: Event_284: system.switch_cpus2 progress event, total committed:78362227, progress insts committed: 29205178, IPC: 002.9176
16901902834353: Event_283: system.switch_cpus1 progress event, total committed:78362239, progress insts committed: 29210120, IPC: 02.91809
16901902834353: Event_282: system.switch_cpus0 progress event, total committed:78476125, progress insts committed: 29266619, IPC: 02.92374
16905236167686: Event_282: system.switch_cpus0 progress event, total committed:103478612, progress insts committed: 25002487, IPC: 02.49775
16905236167686: Event_283: system.switch_cpus1 progress event, total committed:103363325, progress insts committed: 25001086, IPC: 02.49761
16905236167686: Event_284: system.switch_cpus2 progress event, total committed:103388931, progress insts committed: 25026704, IPC: 02.50017
16905236167686: Event_285: system.switch_cpus3 progress event, total committed:103329620, progress insts committed: 24967329, IPC: 02.49424
16908569501019: Event_285: system.switch_cpus3 progress event, total committed:128476512, progress insts committed: 25146892, IPC: 02.51217
16908569501019: Event_284: system.switch_cpus2 progress event, total committed:128510515, progress insts committed: 25121584, IPC: 02.50965
16908569501019: Event_283: system.switch_cpus1 progress event, total committed:128542543, progress insts committed: 25179218, IPC: 002.5154
16908569501019: Event_282: system.switch_cpus0 progress event, total committed:128711225, progress insts committed: 25232613, IPC: 02.52074
16911902834352: Event_282: system.switch_cpus0 progress event, total committed:155745929, progress insts committed: 27034704, IPC: 02.70077
16911902834352: Event_283: system.switch_cpus1 progress event, total committed:155518597, progress insts committed: 26976054, IPC: 02.69491
16911902834352: Event_284: system.switch_cpus2 progress event, total committed:155493516, progress insts committed: 26983001, IPC: 002.6956
16911902834352: Event_285: system.switch_cpus3 progress event, total committed:155435751, progress insts committed: 26959239, IPC: 02.69323
16915236167685: Event_285: system.switch_cpus3 progress event, total committed:178464310, progress insts committed: 23028559, IPC: 02.30055
16915236167685: Event_284: system.switch_cpus2 progress event, total committed:178493304, progress insts committed: 22999788, IPC: 02.29768
16915236167685: Event_283: system.switch_cpus1 progress event, total committed:178519305, progress insts committed: 23000708, IPC: 02.29777
16915236167685: Event_282: system.switch_cpus0 progress event, total committed:178753017, progress insts committed: 23007088, IPC: 02.29841
16918569501018: Event_282: system.switch_cpus0 progress event, total committed:202713448, progress insts committed: 23960431, IPC: 02.39365
16918569501018: Event_283: system.switch_cpus1 progress event, total committed:202455980, progress insts committed: 23936675, IPC: 02.39127
16918569501018: Event_284: system.switch_cpus2 progress event, total committed:202384213, progress insts committed: 23890909, IPC: 002.3867
16918569501018: Event_285: system.switch_cpus3 progress event, total committed:202355883, progress insts committed: 23891573, IPC: 02.38677
16921902834351: Event_285: system.switch_cpus3 progress event, total committed:227575434, progress insts committed: 25219551, IPC: 02.51943
16921902834351: Event_284: system.switch_cpus2 progress event, total committed:227699934, progress insts committed: 25315721, IPC: 02.52904
16921902834351: Event_283: system.switch_cpus1 progress event, total committed:227666089, progress insts committed: 25210109, IPC: 02.51849
16921902834351: Event_282: system.switch_cpus0 progress event, total committed:228044959, progress insts committed: 25331511, IPC: 02.53062
16925236167684: Event_282: system.switch_cpus0 progress event, total committed:252268534, progress insts committed: 24223575, IPC: 02.41994
16925236167684: Event_283: system.switch_cpus1 progress event, total committed:251844915, progress insts committed: 24178826, IPC: 02.41546
16925236167684: Event_284: system.switch_cpus2 progress event, total committed:251986631, progress insts committed: 24286697, IPC: 02.42624
16925236167684: Event_285: system.switch_cpus3 progress event, total committed:251750341, progress insts committed: 24174907, IPC: 02.41507
16928569501017: Event_285: system.switch_cpus3 progress event, total committed:274214083, progress insts committed: 22463742, IPC: 02.24413
16928569501017: Event_284: system.switch_cpus2 progress event, total committed:274382579, progress insts committed: 22395948, IPC: 02.23736
16928569501017: Event_283: system.switch_cpus1 progress event, total committed:274286379, progress insts committed: 22441464, IPC: 002.2419
16928569501017: Event_282: system.switch_cpus0 progress event, total committed:274657611, progress insts committed: 22389077, IPC: 02.23667
16931902834350: Event_282: system.switch_cpus0 progress event, total committed:295736870, progress insts committed: 21079259, IPC: 02.10582
16931902834350: Event_283: system.switch_cpus1 progress event, total committed:295394834, progress insts committed: 21108455, IPC: 02.10873
16931902834350: Event_284: system.switch_cpus2 progress event, total committed:295471464, progress insts committed: 21088885, IPC: 02.10678
16931902834350: Event_285: system.switch_cpus3 progress event, total committed:295295076, progress insts committed: 21080993, IPC: 02.10599
16935236167683: Event_285: system.switch_cpus3 progress event, total committed:318144766, progress insts committed: 22849690, IPC: 02.28268
16935236167683: Event_284: system.switch_cpus2 progress event, total committed:318363389, progress insts committed: 22891925, IPC: 002.2869
16935236167683: Event_283: system.switch_cpus1 progress event, total committed:318226275, progress insts committed: 22831441, IPC: 02.28086
16935236167683: Event_282: system.switch_cpus0 progress event, total committed:318643772, progress insts committed: 22906902, IPC: 002.2884
16938569501016: Event_282: system.switch_cpus0 progress event, total committed:345386373, progress insts committed: 26742601, IPC: 02.67159
16938569501016: Event_283: system.switch_cpus1 progress event, total committed:345008376, progress insts committed: 26782101, IPC: 02.67553
16938569501016: Event_284: system.switch_cpus2 progress event, total committed:345134508, progress insts committed: 26771119, IPC: 02.67443
16938569501016: Event_285: system.switch_cpus3 progress event, total committed:344962267, progress insts committed: 26817501, IPC: 02.67907
16941902834349: Event_285: system.switch_cpus3 progress event, total committed:366234590, progress insts committed: 21272323, IPC: 02.12511
16941902834349: Event_284: system.switch_cpus2 progress event, total committed:366427632, progress insts committed: 21293124, IPC: 02.12718
16941902834349: Event_283: system.switch_cpus1 progress event, total committed:366252017, progress insts committed: 21243641, IPC: 02.12224
16941902834349: Event_282: system.switch_cpus0 progress event, total committed:366638824, progress insts committed: 21252451, IPC: 02.12312
Exiting @ tick 16944250395726 because a thread reached the max instruction count
