Command line:
./runscript_pride.sh nab RFM10.BR2.4C 4 2017 --rh_defense --rh_mitigation=RFM --rh_rfm_per_trefi=10 --rh_rfm_blast_radius=2 --rh_rfm_maxacts_per_trefi=79
Global frequency set at 1000000000000 ticks per second
RFM details - rfm_act_threshold: 7, blast_radius: 2, delay_per_rfm: 175000 ps. sample_rate: 0.125000
RH Defense config: RFM, Bus Delay: 0, rfms_per_trefi: 10, rfm_act_threshold: 7, blast_radius: 2,rfm_delay_per_act: 45000 ps.
DRAM config: RowsPerBank: 65536, BanksPerRank: 32, RanksPerChannel: 1
warn: Sockets disabled, not accepting gdb connections
warn: CoherentXBar system.cpu0.mmucache.mmubus has no snooping ports attached!
warn: CoherentXBar system.cpu1.mmucache.mmubus has no snooping ports attached!
warn: CoherentXBar system.cpu2.mmucache.mmubus has no snooping ports attached!
warn: CoherentXBar system.cpu3.mmucache.mmubus has no snooping ports attached!
warn: Checkpoints for file descriptors currently do not work.
warn: Checkpoints for file descriptors currently do not work.
warn: Checkpoints for file descriptors currently do not work.
warn: Checkpoints for file descriptors currently do not work.
gem5 Simulator System.  http://gem5.org
gem5 is copyrighted software; use the --copyright option for details.

gem5 version 20.1.0.5
gem5 compiled Jul 12 2024 12:42:38
gem5 started Jul 22 2024 18:39:37
gem5 executing on a07dda8b130c, pid 89851
command line: /home/user/PrIDE/performance/gem5/build/X86/gem5.opt --outdir=/home/user/PrIDE/performance/gem5/stats/pride_multiprogram_16GBmem_250Mn.SPEC2017.C4/RFM10.BR2.4C/nab /home/user/PrIDE/performance/gem5/configs/example/se_rq_spec_config_multicore.py --redirects /lib64=/home/utils/gcc-6.2.0/lib64 --benchmark=nab --benchmark_stdout=/home/user/PrIDE/performance/gem5/stats/pride_multiprogram_16GBmem_250Mn.SPEC2017.C4/RFM10.BR2.4C/nab/nab.out --benchmark_stderr=/home/user/PrIDE/performance/gem5/stats/pride_multiprogram_16GBmem_250Mn.SPEC2017.C4/RFM10.BR2.4C/nab/nab.err --spec-version=2017 --rh_defense --rh_mitigation=RFM --rh_rfm_per_trefi=10 --rh_rfm_blast_radius=2 --rh_rfm_maxacts_per_trefi=79 --num-cpus=4 --mem-size=16GB --mem-type=DDR5_2400_32x4 --mem-ranks=1 --checkpoint-dir=/home/user/PrIDE/performance/gem5/cpts/multiprogram_16GBmem_25Bn.SPEC2017.C4/nab-1-ref-x86 --checkpoint-restore=25000000000 --at-instruction --cpu-type DerivO3CPU --caches --l2cache --l1d_size=32kB --l1i_size=32kB --l2_size=256kB --l1d_assoc=8 --l1i_assoc=8 --l2_assoc=16 --maxinsts=250000000 --prog-interval=300Hz

info: Standard input is not a terminal, disabling listeners.
Benchmark- 0   nab
Selected benchmark
--> nab
CMD: ['/opt/spec2017/benchspec/CPU/544.nab_r/run/run_base_refrate_gem5_se-m64.0000/nab_r_base.gem5_se-m64', '1am0', '1122214447', '122']
CWD: /opt/spec2017/benchspec/CPU/544.nab_r/run/run_base_refrate_gem5_se-m64.0000/
Process stdout file: /home/user/PrIDE/performance/gem5/stats/pride_multiprogram_16GBmem_250Mn.SPEC2017.C4/RFM10.BR2.4C/nab/nab.out_0
Process stderr file: /home/user/PrIDE/performance/gem5/stats/pride_multiprogram_16GBmem_250Mn.SPEC2017.C4/RFM10.BR2.4C/nab/nab.err_0
Benchmark- 1   nab
Selected benchmark
--> nab
CMD: ['/opt/spec2017/benchspec/CPU/544.nab_r/run/run_base_refrate_gem5_se-m64.0000/nab_r_base.gem5_se-m64', '1am0', '1122214447', '122']
CWD: /opt/spec2017/benchspec/CPU/544.nab_r/run/run_base_refrate_gem5_se-m64.0000/
Process stdout file: /home/user/PrIDE/performance/gem5/stats/pride_multiprogram_16GBmem_250Mn.SPEC2017.C4/RFM10.BR2.4C/nab/nab.out_1
Process stderr file: /home/user/PrIDE/performance/gem5/stats/pride_multiprogram_16GBmem_250Mn.SPEC2017.C4/RFM10.BR2.4C/nab/nab.err_1
Benchmark- 2   nab
Selected benchmark
--> nab
CMD: ['/opt/spec2017/benchspec/CPU/544.nab_r/run/run_base_refrate_gem5_se-m64.0000/nab_r_base.gem5_se-m64', '1am0', '1122214447', '122']
CWD: /opt/spec2017/benchspec/CPU/544.nab_r/run/run_base_refrate_gem5_se-m64.0000/
Process stdout file: /home/user/PrIDE/performance/gem5/stats/pride_multiprogram_16GBmem_250Mn.SPEC2017.C4/RFM10.BR2.4C/nab/nab.out_2
Process stderr file: /home/user/PrIDE/performance/gem5/stats/pride_multiprogram_16GBmem_250Mn.SPEC2017.C4/RFM10.BR2.4C/nab/nab.err_2
Benchmark- 3   nab
Selected benchmark
--> nab
CMD: ['/opt/spec2017/benchspec/CPU/544.nab_r/run/run_base_refrate_gem5_se-m64.0000/nab_r_base.gem5_se-m64', '1am0', '1122214447', '122']
CWD: /opt/spec2017/benchspec/CPU/544.nab_r/run/run_base_refrate_gem5_se-m64.0000/
Process stdout file: /home/user/PrIDE/performance/gem5/stats/pride_multiprogram_16GBmem_250Mn.SPEC2017.C4/RFM10.BR2.4C/nab/nab.out_3
Process stderr file: /home/user/PrIDE/performance/gem5/stats/pride_multiprogram_16GBmem_250Mn.SPEC2017.C4/RFM10.BR2.4C/nab/nab.err_3
Workload-0: 
['/opt/spec2017/benchspec/CPU/544.nab_r/run/run_base_refrate_gem5_se-m64.0000/nab_r_base.gem5_se-m64', '1am0', '1122214447', '122']
Workload-1: 
['/opt/spec2017/benchspec/CPU/544.nab_r/run/run_base_refrate_gem5_se-m64.0000/nab_r_base.gem5_se-m64', '1am0', '1122214447', '122']
Workload-2: 
['/opt/spec2017/benchspec/CPU/544.nab_r/run/run_base_refrate_gem5_se-m64.0000/nab_r_base.gem5_se-m64', '1am0', '1122214447', '122']
Workload-3: 
['/opt/spec2017/benchspec/CPU/544.nab_r/run/run_base_refrate_gem5_se-m64.0000/nab_r_base.gem5_se-m64', '1am0', '1122214447', '122']
defense_enable:  True  detector:  MG  mitigation:  RFM  threshold:  800
mg_entries:  1700
rfm_maxacts_per_trefi:  79 rfm_per_trefi:  10 rfm_blast_radius:  2
Switch at curTick count:10000
warn: membus.master is deprecated. `master` is now called `mem_side_ports`
warn: No dot file generated. Please install pydot to generate the dot file and pdf.
info: Entering event queue @ 16891902822699.  Starting simulation...
info: Entering event queue @ 16891902832699.  Starting simulation...
warn: PowerState: Already in the requested power state, request ignored
Switched CPUS @ tick 16891902832699
switching cpus
**** REAL SIMULATION ****
info: Entering event queue @ 16891902833355.  Starting simulation...
16895236156032: Event_285: system.switch_cpus3 progress event, total committed:26591136, progress insts committed: 26591136, IPC: 02.65645
16895236156032: Event_284: system.switch_cpus2 progress event, total committed:26591227, progress insts committed: 26591227, IPC: 02.65646
16895236156032: Event_283: system.switch_cpus1 progress event, total committed:26591193, progress insts committed: 26591193, IPC: 02.65646
16895236156032: Event_282: system.switch_cpus0 progress event, total committed:26596942, progress insts committed: 26596942, IPC: 02.65703
16898569489365: Event_282: system.switch_cpus0 progress event, total committed:49218430, progress insts committed: 22621488, IPC: 02.25989
16898569489365: Event_283: system.switch_cpus1 progress event, total committed:49214293, progress insts committed: 22623100, IPC: 02.26005
16898569489365: Event_284: system.switch_cpus2 progress event, total committed:49218487, progress insts committed: 22627260, IPC: 02.26046
16898569489365: Event_285: system.switch_cpus3 progress event, total committed:49214267, progress insts committed: 22623131, IPC: 02.26005
16901902822698: Event_285: system.switch_cpus3 progress event, total committed:78382219, progress insts committed: 29167952, IPC: 02.91388
16901902822698: Event_284: system.switch_cpus2 progress event, total committed:78468003, progress insts committed: 29249516, IPC: 02.92203
16901902822698: Event_283: system.switch_cpus1 progress event, total committed:78384834, progress insts committed: 29170541, IPC: 02.91414
16901902822698: Event_282: system.switch_cpus0 progress event, total committed:78420487, progress insts committed: 29202057, IPC: 02.91729
16905236156031: Event_282: system.switch_cpus0 progress event, total committed:103458290, progress insts committed: 25037803, IPC: 02.50128
16905236156031: Event_283: system.switch_cpus1 progress event, total committed:103366597, progress insts committed: 24981763, IPC: 02.49568
16905236156031: Event_284: system.switch_cpus2 progress event, total committed:103479844, progress insts committed: 25011841, IPC: 02.49868
16905236156031: Event_285: system.switch_cpus3 progress event, total committed:103338411, progress insts committed: 24956192, IPC: 02.49312
16908569489364: Event_285: system.switch_cpus3 progress event, total committed:128510096, progress insts committed: 25171685, IPC: 02.51465
16908569489364: Event_284: system.switch_cpus2 progress event, total committed:128653359, progress insts committed: 25173515, IPC: 02.51483
16908569489364: Event_283: system.switch_cpus1 progress event, total committed:128542108, progress insts committed: 25175511, IPC: 02.51503
16908569489364: Event_282: system.switch_cpus0 progress event, total committed:128625729, progress insts committed: 25167439, IPC: 02.51423
16911902822697: Event_282: system.switch_cpus0 progress event, total committed:155588460, progress insts committed: 26962731, IPC: 02.69358
16911902822697: Event_283: system.switch_cpus1 progress event, total committed:155507978, progress insts committed: 26965870, IPC: 02.69389
16911902822697: Event_284: system.switch_cpus2 progress event, total committed:155676116, progress insts committed: 27022757, IPC: 02.69957
16911902822697: Event_285: system.switch_cpus3 progress event, total committed:155486610, progress insts committed: 26976514, IPC: 02.69495
16915236156030: Event_285: system.switch_cpus3 progress event, total committed:178527241, progress insts committed: 23040631, IPC: 02.30176
16915236156030: Event_284: system.switch_cpus2 progress event, total committed:178665273, progress insts committed: 22989157, IPC: 02.29662
16915236156030: Event_283: system.switch_cpus1 progress event, total committed:178527144, progress insts committed: 23019166, IPC: 02.29961
16915236156030: Event_282: system.switch_cpus0 progress event, total committed:178575520, progress insts committed: 22987060, IPC: 02.29641
16918569489363: Event_282: system.switch_cpus0 progress event, total committed:202455561, progress insts committed: 23880041, IPC: 02.38562
16918569489363: Event_283: system.switch_cpus1 progress event, total committed:202421247, progress insts committed: 23894103, IPC: 02.38702
16918569489363: Event_284: system.switch_cpus2 progress event, total committed:202621360, progress insts committed: 23956087, IPC: 02.39321
16918569489363: Event_285: system.switch_cpus3 progress event, total committed:202452017, progress insts committed: 23924776, IPC: 02.39009
16921902822696: Event_285: system.switch_cpus3 progress event, total committed:227665746, progress insts committed: 25213729, IPC: 02.51885
16921902822696: Event_284: system.switch_cpus2 progress event, total committed:227889288, progress insts committed: 25267928, IPC: 02.52427
16921902822696: Event_283: system.switch_cpus1 progress event, total committed:227642401, progress insts committed: 25221154, IPC: 02.51959
16921902822696: Event_282: system.switch_cpus0 progress event, total committed:227733122, progress insts committed: 25277561, IPC: 02.52523
16925236156029: Event_282: system.switch_cpus0 progress event, total committed:251977537, progress insts committed: 24244415, IPC: 02.42202
16925236156029: Event_283: system.switch_cpus1 progress event, total committed:251844492, progress insts committed: 24202091, IPC: 02.41779
16925236156029: Event_284: system.switch_cpus2 progress event, total committed:252086623, progress insts committed: 24197335, IPC: 02.41731
16925236156029: Event_285: system.switch_cpus3 progress event, total committed:251844546, progress insts committed: 24178800, IPC: 02.41546
16928569489362: Event_285: system.switch_cpus3 progress event, total committed:274331108, progress insts committed: 22486562, IPC: 02.24641
16928569489362: Event_284: system.switch_cpus2 progress event, total committed:274476541, progress insts committed: 22389918, IPC: 02.23675
16928569489362: Event_283: system.switch_cpus1 progress event, total committed:274305327, progress insts committed: 22460835, IPC: 02.24384
16928569489362: Event_282: system.switch_cpus0 progress event, total committed:274381977, progress insts committed: 22404440, IPC: 002.2382
16931902822695: Event_282: system.switch_cpus0 progress event, total committed:295473398, progress insts committed: 21091421, IPC: 02.10703
16931902822695: Event_283: system.switch_cpus1 progress event, total committed:295402051, progress insts committed: 21096724, IPC: 02.10756
16931902822695: Event_284: system.switch_cpus2 progress event, total committed:295582166, progress insts committed: 21105625, IPC: 02.10845
16931902822695: Event_285: system.switch_cpus3 progress event, total committed:295419665, progress insts committed: 21088557, IPC: 02.10675
16935236156028: Event_285: system.switch_cpus3 progress event, total committed:318280036, progress insts committed: 22860371, IPC: 02.28375
16935236156028: Event_284: system.switch_cpus2 progress event, total committed:318444018, progress insts committed: 22861852, IPC: 002.2839
16935236156028: Event_283: system.switch_cpus1 progress event, total committed:318251975, progress insts committed: 22849924, IPC: 02.28271
16935236156028: Event_282: system.switch_cpus0 progress event, total committed:318391612, progress insts committed: 22918214, IPC: 02.28953
16938569489361: Event_282: system.switch_cpus0 progress event, total committed:345171546, progress insts committed: 26779934, IPC: 02.67532
16938569489361: Event_283: system.switch_cpus1 progress event, total committed:345055969, progress insts committed: 26803994, IPC: 02.67772
16938569489361: Event_284: system.switch_cpus2 progress event, total committed:345241536, progress insts committed: 26797518, IPC: 02.67707
16938569489361: Event_285: system.switch_cpus3 progress event, total committed:345040088, progress insts committed: 26760052, IPC: 02.67333
16941902822694: Event_285: system.switch_cpus3 progress event, total committed:366283923, progress insts committed: 21243835, IPC: 02.12226
16941902822694: Event_284: system.switch_cpus2 progress event, total committed:366519136, progress insts committed: 21277600, IPC: 02.12563
16941902822694: Event_283: system.switch_cpus1 progress event, total committed:366300611, progress insts committed: 21244642, IPC: 02.12234
16941902822694: Event_282: system.switch_cpus0 progress event, total committed:366399677, progress insts committed: 21228131, IPC: 02.12069
Exiting @ tick 16944270273495 because a thread reached the max instruction count
