
---------- Begin Simulation Statistics ----------
final_tick                               16944250395726                       # Number of ticks from beginning of simulation (restored from checkpoints and never reset)
host_inst_rate                                 194757                       # Simulator instruction rate (inst/s)
host_mem_usage                               17128432                       # Number of bytes of host memory used
host_op_rate                                   296878                       # Simulator op (including micro ops) rate (op/s)
host_seconds                                  5131.09                       # Real time elapsed on the host
host_tick_rate                               10202041                       # Simulator tick rate (ticks/s)
sim_freq                                 1000000000000                       # Frequency of simulated ticks
sim_insts                                   999315843                       # Number of instructions simulated
sim_ops                                    1523307146                       # Number of ops (including micro ops) simulated
sim_seconds                                  0.052348                       # Number of seconds simulated
sim_ticks                                 52347561372                       # Number of ticks simulated
system.cpu0.Branches                                3                       # Number of branches fetched
system.cpu0.committedInsts                         14                       # Number of instructions committed
system.cpu0.committedOps                           22                       # Number of ops (including micro ops) committed
system.cpu0.idle_fraction                           0                       # Percentage of idle cycles
system.cpu0.l2bus.snoop_filter.hit_multi_requests            0                       # Number of requests hitting in the snoop filter with multiple (>1) holders of the requested data.
system.cpu0.l2bus.snoop_filter.hit_multi_snoops            0                       # Number of snoops hitting in the snoop filter with multiple (>1) holders of the requested data.
system.cpu0.l2bus.snoop_filter.hit_single_requests      2946295                       # Number of requests hitting in the snoop filter with a single holder of the requested data.
system.cpu0.l2bus.snoop_filter.hit_single_snoops         7907                       # Number of snoops hitting in the snoop filter with a single holder of the requested data.
system.cpu0.l2bus.snoop_filter.tot_requests      5535087                       # Total number of requests made to the snoop filter.
system.cpu0.l2bus.snoop_filter.tot_snoops         7907                       # Total number of snoops made to the snoop filter.
system.cpu0.mmucache.mmubus.snoop_filter.hit_multi_requests            0                       # Number of requests hitting in the snoop filter with multiple (>1) holders of the requested data.
system.cpu0.mmucache.mmubus.snoop_filter.hit_multi_snoops            0                       # Number of snoops hitting in the snoop filter with multiple (>1) holders of the requested data.
system.cpu0.mmucache.mmubus.snoop_filter.hit_single_requests            0                       # Number of requests hitting in the snoop filter with a single holder of the requested data.
system.cpu0.mmucache.mmubus.snoop_filter.hit_single_snoops            0                       # Number of snoops hitting in the snoop filter with a single holder of the requested data.
system.cpu0.mmucache.mmubus.snoop_filter.tot_requests            0                       # Total number of requests made to the snoop filter.
system.cpu0.mmucache.mmubus.snoop_filter.tot_snoops            0                       # Total number of snoops made to the snoop filter.
system.cpu0.not_idle_fraction                       1                       # Percentage of non-idle cycles
system.cpu0.numCycles                              30                       # number of cpu cycles simulated
system.cpu0.numWorkItemsCompleted                   0                       # number of work items this cpu completed
system.cpu0.numWorkItemsStarted                     0                       # number of work items this cpu started
system.cpu0.num_busy_cycles                        30                       # Number of busy cycles
system.cpu0.num_cc_register_reads                  19                       # number of times the CC registers were read
system.cpu0.num_cc_register_writes                  4                       # number of times the CC registers were written
system.cpu0.num_conditional_control_insts            3                       # number of instructions that are conditional controls
system.cpu0.num_fp_alu_accesses                    11                       # Number of float alu accesses
system.cpu0.num_fp_insts                           11                       # number of float instructions
system.cpu0.num_fp_register_reads                  17                       # number of times the floating registers were read
system.cpu0.num_fp_register_writes                  9                       # number of times the floating registers were written
system.cpu0.num_func_calls                          0                       # number of times a function call or return occured
system.cpu0.num_idle_cycles                         0                       # Number of idle cycles
system.cpu0.num_int_alu_accesses                   15                       # Number of integer alu accesses
system.cpu0.num_int_insts                          15                       # number of integer instructions
system.cpu0.num_int_register_reads                 28                       # number of times the integer registers were read
system.cpu0.num_int_register_writes                 8                       # number of times the integer registers were written
system.cpu0.num_load_insts                          5                       # Number of load instructions
system.cpu0.num_mem_refs                            5                       # number of memory refs
system.cpu0.num_store_insts                         0                       # Number of store instructions
system.cpu0.num_vec_alu_accesses                    0                       # Number of vector alu accesses
system.cpu0.num_vec_insts                           0                       # number of vector instructions
system.cpu0.num_vec_register_reads                  0                       # number of times the vector registers were read
system.cpu0.num_vec_register_writes                 0                       # number of times the vector registers were written
system.cpu0.op_class::No_OpClass                    0      0.00%      0.00% # Class of executed instruction
system.cpu0.op_class::IntAlu                       11     50.00%     50.00% # Class of executed instruction
system.cpu0.op_class::IntMult                       0      0.00%     50.00% # Class of executed instruction
system.cpu0.op_class::IntDiv                        0      0.00%     50.00% # Class of executed instruction
system.cpu0.op_class::FloatAdd                      0      0.00%     50.00% # Class of executed instruction
system.cpu0.op_class::FloatCmp                      0      0.00%     50.00% # Class of executed instruction
system.cpu0.op_class::FloatCvt                      0      0.00%     50.00% # Class of executed instruction
system.cpu0.op_class::FloatMult                     0      0.00%     50.00% # Class of executed instruction
system.cpu0.op_class::FloatMultAcc                  0      0.00%     50.00% # Class of executed instruction
system.cpu0.op_class::FloatDiv                      0      0.00%     50.00% # Class of executed instruction
system.cpu0.op_class::FloatMisc                     0      0.00%     50.00% # Class of executed instruction
system.cpu0.op_class::FloatSqrt                     0      0.00%     50.00% # Class of executed instruction
system.cpu0.op_class::SimdAdd                       0      0.00%     50.00% # Class of executed instruction
system.cpu0.op_class::SimdAddAcc                    0      0.00%     50.00% # Class of executed instruction
system.cpu0.op_class::SimdAlu                       0      0.00%     50.00% # Class of executed instruction
system.cpu0.op_class::SimdCmp                       0      0.00%     50.00% # Class of executed instruction
system.cpu0.op_class::SimdCvt                       0      0.00%     50.00% # Class of executed instruction
system.cpu0.op_class::SimdMisc                      0      0.00%     50.00% # Class of executed instruction
system.cpu0.op_class::SimdMult                      0      0.00%     50.00% # Class of executed instruction
system.cpu0.op_class::SimdMultAcc                   0      0.00%     50.00% # Class of executed instruction
system.cpu0.op_class::SimdShift                     0      0.00%     50.00% # Class of executed instruction
system.cpu0.op_class::SimdShiftAcc                  0      0.00%     50.00% # Class of executed instruction
system.cpu0.op_class::SimdDiv                       0      0.00%     50.00% # Class of executed instruction
system.cpu0.op_class::SimdSqrt                      0      0.00%     50.00% # Class of executed instruction
system.cpu0.op_class::SimdFloatAdd                  1      4.55%     54.55% # Class of executed instruction
system.cpu0.op_class::SimdFloatAlu                  0      0.00%     54.55% # Class of executed instruction
system.cpu0.op_class::SimdFloatCmp                  0      0.00%     54.55% # Class of executed instruction
system.cpu0.op_class::SimdFloatCvt                  2      9.09%     63.64% # Class of executed instruction
system.cpu0.op_class::SimdFloatDiv                  1      4.55%     68.18% # Class of executed instruction
system.cpu0.op_class::SimdFloatMisc                 0      0.00%     68.18% # Class of executed instruction
system.cpu0.op_class::SimdFloatMult                 1      4.55%     72.73% # Class of executed instruction
system.cpu0.op_class::SimdFloatMultAcc              0      0.00%     72.73% # Class of executed instruction
system.cpu0.op_class::SimdFloatSqrt                 1      4.55%     77.27% # Class of executed instruction
system.cpu0.op_class::SimdReduceAdd                 0      0.00%     77.27% # Class of executed instruction
system.cpu0.op_class::SimdReduceAlu                 0      0.00%     77.27% # Class of executed instruction
system.cpu0.op_class::SimdReduceCmp                 0      0.00%     77.27% # Class of executed instruction
system.cpu0.op_class::SimdFloatReduceAdd            0      0.00%     77.27% # Class of executed instruction
system.cpu0.op_class::SimdFloatReduceCmp            0      0.00%     77.27% # Class of executed instruction
system.cpu0.op_class::SimdAes                       0      0.00%     77.27% # Class of executed instruction
system.cpu0.op_class::SimdAesMix                    0      0.00%     77.27% # Class of executed instruction
system.cpu0.op_class::SimdSha1Hash                  0      0.00%     77.27% # Class of executed instruction
system.cpu0.op_class::SimdSha1Hash2                 0      0.00%     77.27% # Class of executed instruction
system.cpu0.op_class::SimdSha256Hash                0      0.00%     77.27% # Class of executed instruction
system.cpu0.op_class::SimdSha256Hash2               0      0.00%     77.27% # Class of executed instruction
system.cpu0.op_class::SimdShaSigma2                 0      0.00%     77.27% # Class of executed instruction
system.cpu0.op_class::SimdShaSigma3                 0      0.00%     77.27% # Class of executed instruction
system.cpu0.op_class::SimdPredAlu                   0      0.00%     77.27% # Class of executed instruction
system.cpu0.op_class::MemRead                       1      4.55%     81.82% # Class of executed instruction
system.cpu0.op_class::MemWrite                      0      0.00%     81.82% # Class of executed instruction
system.cpu0.op_class::FloatMemRead                  4     18.18%    100.00% # Class of executed instruction
system.cpu0.op_class::FloatMemWrite                 0      0.00%    100.00% # Class of executed instruction
system.cpu0.op_class::IprAccess                     0      0.00%    100.00% # Class of executed instruction
system.cpu0.op_class::InstPrefetch                  0      0.00%    100.00% # Class of executed instruction
system.cpu0.op_class::total                        22                       # Class of executed instruction
system.cpu0.workload.numSyscalls                    0                       # Number of system calls
system.cpu1.Branches                                3                       # Number of branches fetched
system.cpu1.committedInsts                         14                       # Number of instructions committed
system.cpu1.committedOps                           22                       # Number of ops (including micro ops) committed
system.cpu1.idle_fraction                           0                       # Percentage of idle cycles
system.cpu1.l2bus.snoop_filter.hit_multi_requests            0                       # Number of requests hitting in the snoop filter with multiple (>1) holders of the requested data.
system.cpu1.l2bus.snoop_filter.hit_multi_snoops            0                       # Number of snoops hitting in the snoop filter with multiple (>1) holders of the requested data.
system.cpu1.l2bus.snoop_filter.hit_single_requests      2944561                       # Number of requests hitting in the snoop filter with a single holder of the requested data.
system.cpu1.l2bus.snoop_filter.hit_single_snoops         7926                       # Number of snoops hitting in the snoop filter with a single holder of the requested data.
system.cpu1.l2bus.snoop_filter.tot_requests      5530572                       # Total number of requests made to the snoop filter.
system.cpu1.l2bus.snoop_filter.tot_snoops         7926                       # Total number of snoops made to the snoop filter.
system.cpu1.mmucache.mmubus.snoop_filter.hit_multi_requests            0                       # Number of requests hitting in the snoop filter with multiple (>1) holders of the requested data.
system.cpu1.mmucache.mmubus.snoop_filter.hit_multi_snoops            0                       # Number of snoops hitting in the snoop filter with multiple (>1) holders of the requested data.
system.cpu1.mmucache.mmubus.snoop_filter.hit_single_requests            0                       # Number of requests hitting in the snoop filter with a single holder of the requested data.
system.cpu1.mmucache.mmubus.snoop_filter.hit_single_snoops            0                       # Number of snoops hitting in the snoop filter with a single holder of the requested data.
system.cpu1.mmucache.mmubus.snoop_filter.tot_requests            0                       # Total number of requests made to the snoop filter.
system.cpu1.mmucache.mmubus.snoop_filter.tot_snoops            0                       # Total number of snoops made to the snoop filter.
system.cpu1.not_idle_fraction                       1                       # Percentage of non-idle cycles
system.cpu1.numCycles                              30                       # number of cpu cycles simulated
system.cpu1.numWorkItemsCompleted                   0                       # number of work items this cpu completed
system.cpu1.numWorkItemsStarted                     0                       # number of work items this cpu started
system.cpu1.num_busy_cycles                        30                       # Number of busy cycles
system.cpu1.num_cc_register_reads                  19                       # number of times the CC registers were read
system.cpu1.num_cc_register_writes                  4                       # number of times the CC registers were written
system.cpu1.num_conditional_control_insts            3                       # number of instructions that are conditional controls
system.cpu1.num_fp_alu_accesses                    11                       # Number of float alu accesses
system.cpu1.num_fp_insts                           11                       # number of float instructions
system.cpu1.num_fp_register_reads                  17                       # number of times the floating registers were read
system.cpu1.num_fp_register_writes                  9                       # number of times the floating registers were written
system.cpu1.num_func_calls                          0                       # number of times a function call or return occured
system.cpu1.num_idle_cycles                         0                       # Number of idle cycles
system.cpu1.num_int_alu_accesses                   15                       # Number of integer alu accesses
system.cpu1.num_int_insts                          15                       # number of integer instructions
system.cpu1.num_int_register_reads                 28                       # number of times the integer registers were read
system.cpu1.num_int_register_writes                 8                       # number of times the integer registers were written
system.cpu1.num_load_insts                          5                       # Number of load instructions
system.cpu1.num_mem_refs                            5                       # number of memory refs
system.cpu1.num_store_insts                         0                       # Number of store instructions
system.cpu1.num_vec_alu_accesses                    0                       # Number of vector alu accesses
system.cpu1.num_vec_insts                           0                       # number of vector instructions
system.cpu1.num_vec_register_reads                  0                       # number of times the vector registers were read
system.cpu1.num_vec_register_writes                 0                       # number of times the vector registers were written
system.cpu1.op_class::No_OpClass                    0      0.00%      0.00% # Class of executed instruction
system.cpu1.op_class::IntAlu                       11     50.00%     50.00% # Class of executed instruction
system.cpu1.op_class::IntMult                       0      0.00%     50.00% # Class of executed instruction
system.cpu1.op_class::IntDiv                        0      0.00%     50.00% # Class of executed instruction
system.cpu1.op_class::FloatAdd                      0      0.00%     50.00% # Class of executed instruction
system.cpu1.op_class::FloatCmp                      0      0.00%     50.00% # Class of executed instruction
system.cpu1.op_class::FloatCvt                      0      0.00%     50.00% # Class of executed instruction
system.cpu1.op_class::FloatMult                     0      0.00%     50.00% # Class of executed instruction
system.cpu1.op_class::FloatMultAcc                  0      0.00%     50.00% # Class of executed instruction
system.cpu1.op_class::FloatDiv                      0      0.00%     50.00% # Class of executed instruction
system.cpu1.op_class::FloatMisc                     0      0.00%     50.00% # Class of executed instruction
system.cpu1.op_class::FloatSqrt                     0      0.00%     50.00% # Class of executed instruction
system.cpu1.op_class::SimdAdd                       0      0.00%     50.00% # Class of executed instruction
system.cpu1.op_class::SimdAddAcc                    0      0.00%     50.00% # Class of executed instruction
system.cpu1.op_class::SimdAlu                       0      0.00%     50.00% # Class of executed instruction
system.cpu1.op_class::SimdCmp                       0      0.00%     50.00% # Class of executed instruction
system.cpu1.op_class::SimdCvt                       0      0.00%     50.00% # Class of executed instruction
system.cpu1.op_class::SimdMisc                      0      0.00%     50.00% # Class of executed instruction
system.cpu1.op_class::SimdMult                      0      0.00%     50.00% # Class of executed instruction
system.cpu1.op_class::SimdMultAcc                   0      0.00%     50.00% # Class of executed instruction
system.cpu1.op_class::SimdShift                     0      0.00%     50.00% # Class of executed instruction
system.cpu1.op_class::SimdShiftAcc                  0      0.00%     50.00% # Class of executed instruction
system.cpu1.op_class::SimdDiv                       0      0.00%     50.00% # Class of executed instruction
system.cpu1.op_class::SimdSqrt                      0      0.00%     50.00% # Class of executed instruction
system.cpu1.op_class::SimdFloatAdd                  1      4.55%     54.55% # Class of executed instruction
system.cpu1.op_class::SimdFloatAlu                  0      0.00%     54.55% # Class of executed instruction
system.cpu1.op_class::SimdFloatCmp                  0      0.00%     54.55% # Class of executed instruction
system.cpu1.op_class::SimdFloatCvt                  2      9.09%     63.64% # Class of executed instruction
system.cpu1.op_class::SimdFloatDiv                  1      4.55%     68.18% # Class of executed instruction
system.cpu1.op_class::SimdFloatMisc                 0      0.00%     68.18% # Class of executed instruction
system.cpu1.op_class::SimdFloatMult                 1      4.55%     72.73% # Class of executed instruction
system.cpu1.op_class::SimdFloatMultAcc              0      0.00%     72.73% # Class of executed instruction
system.cpu1.op_class::SimdFloatSqrt                 1      4.55%     77.27% # Class of executed instruction
system.cpu1.op_class::SimdReduceAdd                 0      0.00%     77.27% # Class of executed instruction
system.cpu1.op_class::SimdReduceAlu                 0      0.00%     77.27% # Class of executed instruction
system.cpu1.op_class::SimdReduceCmp                 0      0.00%     77.27% # Class of executed instruction
system.cpu1.op_class::SimdFloatReduceAdd            0      0.00%     77.27% # Class of executed instruction
system.cpu1.op_class::SimdFloatReduceCmp            0      0.00%     77.27% # Class of executed instruction
system.cpu1.op_class::SimdAes                       0      0.00%     77.27% # Class of executed instruction
system.cpu1.op_class::SimdAesMix                    0      0.00%     77.27% # Class of executed instruction
system.cpu1.op_class::SimdSha1Hash                  0      0.00%     77.27% # Class of executed instruction
system.cpu1.op_class::SimdSha1Hash2                 0      0.00%     77.27% # Class of executed instruction
system.cpu1.op_class::SimdSha256Hash                0      0.00%     77.27% # Class of executed instruction
system.cpu1.op_class::SimdSha256Hash2               0      0.00%     77.27% # Class of executed instruction
system.cpu1.op_class::SimdShaSigma2                 0      0.00%     77.27% # Class of executed instruction
system.cpu1.op_class::SimdShaSigma3                 0      0.00%     77.27% # Class of executed instruction
system.cpu1.op_class::SimdPredAlu                   0      0.00%     77.27% # Class of executed instruction
system.cpu1.op_class::MemRead                       1      4.55%     81.82% # Class of executed instruction
system.cpu1.op_class::MemWrite                      0      0.00%     81.82% # Class of executed instruction
system.cpu1.op_class::FloatMemRead                  4     18.18%    100.00% # Class of executed instruction
system.cpu1.op_class::FloatMemWrite                 0      0.00%    100.00% # Class of executed instruction
system.cpu1.op_class::IprAccess                     0      0.00%    100.00% # Class of executed instruction
system.cpu1.op_class::InstPrefetch                  0      0.00%    100.00% # Class of executed instruction
system.cpu1.op_class::total                        22                       # Class of executed instruction
system.cpu1.workload.numSyscalls                    0                       # Number of system calls
system.cpu2.Branches                                3                       # Number of branches fetched
system.cpu2.committedInsts                         14                       # Number of instructions committed
system.cpu2.committedOps                           22                       # Number of ops (including micro ops) committed
system.cpu2.idle_fraction                           0                       # Percentage of idle cycles
system.cpu2.l2bus.snoop_filter.hit_multi_requests            0                       # Number of requests hitting in the snoop filter with multiple (>1) holders of the requested data.
system.cpu2.l2bus.snoop_filter.hit_multi_snoops            0                       # Number of snoops hitting in the snoop filter with multiple (>1) holders of the requested data.
system.cpu2.l2bus.snoop_filter.hit_single_requests      2944270                       # Number of requests hitting in the snoop filter with a single holder of the requested data.
system.cpu2.l2bus.snoop_filter.hit_single_snoops         7900                       # Number of snoops hitting in the snoop filter with a single holder of the requested data.
system.cpu2.l2bus.snoop_filter.tot_requests      5531520                       # Total number of requests made to the snoop filter.
system.cpu2.l2bus.snoop_filter.tot_snoops         7900                       # Total number of snoops made to the snoop filter.
system.cpu2.mmucache.mmubus.snoop_filter.hit_multi_requests            0                       # Number of requests hitting in the snoop filter with multiple (>1) holders of the requested data.
system.cpu2.mmucache.mmubus.snoop_filter.hit_multi_snoops            0                       # Number of snoops hitting in the snoop filter with multiple (>1) holders of the requested data.
system.cpu2.mmucache.mmubus.snoop_filter.hit_single_requests            0                       # Number of requests hitting in the snoop filter with a single holder of the requested data.
system.cpu2.mmucache.mmubus.snoop_filter.hit_single_snoops            0                       # Number of snoops hitting in the snoop filter with a single holder of the requested data.
system.cpu2.mmucache.mmubus.snoop_filter.tot_requests            0                       # Total number of requests made to the snoop filter.
system.cpu2.mmucache.mmubus.snoop_filter.tot_snoops            0                       # Total number of snoops made to the snoop filter.
system.cpu2.not_idle_fraction                       1                       # Percentage of non-idle cycles
system.cpu2.numCycles                              30                       # number of cpu cycles simulated
system.cpu2.numWorkItemsCompleted                   0                       # number of work items this cpu completed
system.cpu2.numWorkItemsStarted                     0                       # number of work items this cpu started
system.cpu2.num_busy_cycles                        30                       # Number of busy cycles
system.cpu2.num_cc_register_reads                  19                       # number of times the CC registers were read
system.cpu2.num_cc_register_writes                  4                       # number of times the CC registers were written
system.cpu2.num_conditional_control_insts            3                       # number of instructions that are conditional controls
system.cpu2.num_fp_alu_accesses                    11                       # Number of float alu accesses
system.cpu2.num_fp_insts                           11                       # number of float instructions
system.cpu2.num_fp_register_reads                  17                       # number of times the floating registers were read
system.cpu2.num_fp_register_writes                  9                       # number of times the floating registers were written
system.cpu2.num_func_calls                          0                       # number of times a function call or return occured
system.cpu2.num_idle_cycles                         0                       # Number of idle cycles
system.cpu2.num_int_alu_accesses                   15                       # Number of integer alu accesses
system.cpu2.num_int_insts                          15                       # number of integer instructions
system.cpu2.num_int_register_reads                 28                       # number of times the integer registers were read
system.cpu2.num_int_register_writes                 8                       # number of times the integer registers were written
system.cpu2.num_load_insts                          5                       # Number of load instructions
system.cpu2.num_mem_refs                            5                       # number of memory refs
system.cpu2.num_store_insts                         0                       # Number of store instructions
system.cpu2.num_vec_alu_accesses                    0                       # Number of vector alu accesses
system.cpu2.num_vec_insts                           0                       # number of vector instructions
system.cpu2.num_vec_register_reads                  0                       # number of times the vector registers were read
system.cpu2.num_vec_register_writes                 0                       # number of times the vector registers were written
system.cpu2.op_class::No_OpClass                    0      0.00%      0.00% # Class of executed instruction
system.cpu2.op_class::IntAlu                       11     50.00%     50.00% # Class of executed instruction
system.cpu2.op_class::IntMult                       0      0.00%     50.00% # Class of executed instruction
system.cpu2.op_class::IntDiv                        0      0.00%     50.00% # Class of executed instruction
system.cpu2.op_class::FloatAdd                      0      0.00%     50.00% # Class of executed instruction
system.cpu2.op_class::FloatCmp                      0      0.00%     50.00% # Class of executed instruction
system.cpu2.op_class::FloatCvt                      0      0.00%     50.00% # Class of executed instruction
system.cpu2.op_class::FloatMult                     0      0.00%     50.00% # Class of executed instruction
system.cpu2.op_class::FloatMultAcc                  0      0.00%     50.00% # Class of executed instruction
system.cpu2.op_class::FloatDiv                      0      0.00%     50.00% # Class of executed instruction
system.cpu2.op_class::FloatMisc                     0      0.00%     50.00% # Class of executed instruction
system.cpu2.op_class::FloatSqrt                     0      0.00%     50.00% # Class of executed instruction
system.cpu2.op_class::SimdAdd                       0      0.00%     50.00% # Class of executed instruction
system.cpu2.op_class::SimdAddAcc                    0      0.00%     50.00% # Class of executed instruction
system.cpu2.op_class::SimdAlu                       0      0.00%     50.00% # Class of executed instruction
system.cpu2.op_class::SimdCmp                       0      0.00%     50.00% # Class of executed instruction
system.cpu2.op_class::SimdCvt                       0      0.00%     50.00% # Class of executed instruction
system.cpu2.op_class::SimdMisc                      0      0.00%     50.00% # Class of executed instruction
system.cpu2.op_class::SimdMult                      0      0.00%     50.00% # Class of executed instruction
system.cpu2.op_class::SimdMultAcc                   0      0.00%     50.00% # Class of executed instruction
system.cpu2.op_class::SimdShift                     0      0.00%     50.00% # Class of executed instruction
system.cpu2.op_class::SimdShiftAcc                  0      0.00%     50.00% # Class of executed instruction
system.cpu2.op_class::SimdDiv                       0      0.00%     50.00% # Class of executed instruction
system.cpu2.op_class::SimdSqrt                      0      0.00%     50.00% # Class of executed instruction
system.cpu2.op_class::SimdFloatAdd                  1      4.55%     54.55% # Class of executed instruction
system.cpu2.op_class::SimdFloatAlu                  0      0.00%     54.55% # Class of executed instruction
system.cpu2.op_class::SimdFloatCmp                  0      0.00%     54.55% # Class of executed instruction
system.cpu2.op_class::SimdFloatCvt                  2      9.09%     63.64% # Class of executed instruction
system.cpu2.op_class::SimdFloatDiv                  1      4.55%     68.18% # Class of executed instruction
system.cpu2.op_class::SimdFloatMisc                 0      0.00%     68.18% # Class of executed instruction
system.cpu2.op_class::SimdFloatMult                 1      4.55%     72.73% # Class of executed instruction
system.cpu2.op_class::SimdFloatMultAcc              0      0.00%     72.73% # Class of executed instruction
system.cpu2.op_class::SimdFloatSqrt                 1      4.55%     77.27% # Class of executed instruction
system.cpu2.op_class::SimdReduceAdd                 0      0.00%     77.27% # Class of executed instruction
system.cpu2.op_class::SimdReduceAlu                 0      0.00%     77.27% # Class of executed instruction
system.cpu2.op_class::SimdReduceCmp                 0      0.00%     77.27% # Class of executed instruction
system.cpu2.op_class::SimdFloatReduceAdd            0      0.00%     77.27% # Class of executed instruction
system.cpu2.op_class::SimdFloatReduceCmp            0      0.00%     77.27% # Class of executed instruction
system.cpu2.op_class::SimdAes                       0      0.00%     77.27% # Class of executed instruction
system.cpu2.op_class::SimdAesMix                    0      0.00%     77.27% # Class of executed instruction
system.cpu2.op_class::SimdSha1Hash                  0      0.00%     77.27% # Class of executed instruction
system.cpu2.op_class::SimdSha1Hash2                 0      0.00%     77.27% # Class of executed instruction
system.cpu2.op_class::SimdSha256Hash                0      0.00%     77.27% # Class of executed instruction
system.cpu2.op_class::SimdSha256Hash2               0      0.00%     77.27% # Class of executed instruction
system.cpu2.op_class::SimdShaSigma2                 0      0.00%     77.27% # Class of executed instruction
system.cpu2.op_class::SimdShaSigma3                 0      0.00%     77.27% # Class of executed instruction
system.cpu2.op_class::SimdPredAlu                   0      0.00%     77.27% # Class of executed instruction
system.cpu2.op_class::MemRead                       1      4.55%     81.82% # Class of executed instruction
system.cpu2.op_class::MemWrite                      0      0.00%     81.82% # Class of executed instruction
system.cpu2.op_class::FloatMemRead                  4     18.18%    100.00% # Class of executed instruction
system.cpu2.op_class::FloatMemWrite                 0      0.00%    100.00% # Class of executed instruction
system.cpu2.op_class::IprAccess                     0      0.00%    100.00% # Class of executed instruction
system.cpu2.op_class::InstPrefetch                  0      0.00%    100.00% # Class of executed instruction
system.cpu2.op_class::total                        22                       # Class of executed instruction
system.cpu2.workload.numSyscalls                    0                       # Number of system calls
system.cpu3.Branches                                3                       # Number of branches fetched
system.cpu3.committedInsts                         14                       # Number of instructions committed
system.cpu3.committedOps                           22                       # Number of ops (including micro ops) committed
system.cpu3.idle_fraction                           0                       # Percentage of idle cycles
system.cpu3.l2bus.snoop_filter.hit_multi_requests            0                       # Number of requests hitting in the snoop filter with multiple (>1) holders of the requested data.
system.cpu3.l2bus.snoop_filter.hit_multi_snoops            0                       # Number of snoops hitting in the snoop filter with multiple (>1) holders of the requested data.
system.cpu3.l2bus.snoop_filter.hit_single_requests      2944562                       # Number of requests hitting in the snoop filter with a single holder of the requested data.
system.cpu3.l2bus.snoop_filter.hit_single_snoops         7926                       # Number of snoops hitting in the snoop filter with a single holder of the requested data.
system.cpu3.l2bus.snoop_filter.tot_requests      5530577                       # Total number of requests made to the snoop filter.
system.cpu3.l2bus.snoop_filter.tot_snoops         7926                       # Total number of snoops made to the snoop filter.
system.cpu3.mmucache.mmubus.snoop_filter.hit_multi_requests            0                       # Number of requests hitting in the snoop filter with multiple (>1) holders of the requested data.
system.cpu3.mmucache.mmubus.snoop_filter.hit_multi_snoops            0                       # Number of snoops hitting in the snoop filter with multiple (>1) holders of the requested data.
system.cpu3.mmucache.mmubus.snoop_filter.hit_single_requests            0                       # Number of requests hitting in the snoop filter with a single holder of the requested data.
system.cpu3.mmucache.mmubus.snoop_filter.hit_single_snoops            0                       # Number of snoops hitting in the snoop filter with a single holder of the requested data.
system.cpu3.mmucache.mmubus.snoop_filter.tot_requests            0                       # Total number of requests made to the snoop filter.
system.cpu3.mmucache.mmubus.snoop_filter.tot_snoops            0                       # Total number of snoops made to the snoop filter.
system.cpu3.not_idle_fraction                       1                       # Percentage of non-idle cycles
system.cpu3.numCycles                              30                       # number of cpu cycles simulated
system.cpu3.numWorkItemsCompleted                   0                       # number of work items this cpu completed
system.cpu3.numWorkItemsStarted                     0                       # number of work items this cpu started
system.cpu3.num_busy_cycles                        30                       # Number of busy cycles
system.cpu3.num_cc_register_reads                  19                       # number of times the CC registers were read
system.cpu3.num_cc_register_writes                  4                       # number of times the CC registers were written
system.cpu3.num_conditional_control_insts            3                       # number of instructions that are conditional controls
system.cpu3.num_fp_alu_accesses                    11                       # Number of float alu accesses
system.cpu3.num_fp_insts                           11                       # number of float instructions
system.cpu3.num_fp_register_reads                  17                       # number of times the floating registers were read
system.cpu3.num_fp_register_writes                  9                       # number of times the floating registers were written
system.cpu3.num_func_calls                          0                       # number of times a function call or return occured
system.cpu3.num_idle_cycles                         0                       # Number of idle cycles
system.cpu3.num_int_alu_accesses                   15                       # Number of integer alu accesses
system.cpu3.num_int_insts                          15                       # number of integer instructions
system.cpu3.num_int_register_reads                 28                       # number of times the integer registers were read
system.cpu3.num_int_register_writes                 8                       # number of times the integer registers were written
system.cpu3.num_load_insts                          5                       # Number of load instructions
system.cpu3.num_mem_refs                            5                       # number of memory refs
system.cpu3.num_store_insts                         0                       # Number of store instructions
system.cpu3.num_vec_alu_accesses                    0                       # Number of vector alu accesses
system.cpu3.num_vec_insts                           0                       # number of vector instructions
system.cpu3.num_vec_register_reads                  0                       # number of times the vector registers were read
system.cpu3.num_vec_register_writes                 0                       # number of times the vector registers were written
system.cpu3.op_class::No_OpClass                    0      0.00%      0.00% # Class of executed instruction
system.cpu3.op_class::IntAlu                       11     50.00%     50.00% # Class of executed instruction
system.cpu3.op_class::IntMult                       0      0.00%     50.00% # Class of executed instruction
system.cpu3.op_class::IntDiv                        0      0.00%     50.00% # Class of executed instruction
system.cpu3.op_class::FloatAdd                      0      0.00%     50.00% # Class of executed instruction
system.cpu3.op_class::FloatCmp                      0      0.00%     50.00% # Class of executed instruction
system.cpu3.op_class::FloatCvt                      0      0.00%     50.00% # Class of executed instruction
system.cpu3.op_class::FloatMult                     0      0.00%     50.00% # Class of executed instruction
system.cpu3.op_class::FloatMultAcc                  0      0.00%     50.00% # Class of executed instruction
system.cpu3.op_class::FloatDiv                      0      0.00%     50.00% # Class of executed instruction
system.cpu3.op_class::FloatMisc                     0      0.00%     50.00% # Class of executed instruction
system.cpu3.op_class::FloatSqrt                     0      0.00%     50.00% # Class of executed instruction
system.cpu3.op_class::SimdAdd                       0      0.00%     50.00% # Class of executed instruction
system.cpu3.op_class::SimdAddAcc                    0      0.00%     50.00% # Class of executed instruction
system.cpu3.op_class::SimdAlu                       0      0.00%     50.00% # Class of executed instruction
system.cpu3.op_class::SimdCmp                       0      0.00%     50.00% # Class of executed instruction
system.cpu3.op_class::SimdCvt                       0      0.00%     50.00% # Class of executed instruction
system.cpu3.op_class::SimdMisc                      0      0.00%     50.00% # Class of executed instruction
system.cpu3.op_class::SimdMult                      0      0.00%     50.00% # Class of executed instruction
system.cpu3.op_class::SimdMultAcc                   0      0.00%     50.00% # Class of executed instruction
system.cpu3.op_class::SimdShift                     0      0.00%     50.00% # Class of executed instruction
system.cpu3.op_class::SimdShiftAcc                  0      0.00%     50.00% # Class of executed instruction
system.cpu3.op_class::SimdDiv                       0      0.00%     50.00% # Class of executed instruction
system.cpu3.op_class::SimdSqrt                      0      0.00%     50.00% # Class of executed instruction
system.cpu3.op_class::SimdFloatAdd                  1      4.55%     54.55% # Class of executed instruction
system.cpu3.op_class::SimdFloatAlu                  0      0.00%     54.55% # Class of executed instruction
system.cpu3.op_class::SimdFloatCmp                  0      0.00%     54.55% # Class of executed instruction
system.cpu3.op_class::SimdFloatCvt                  2      9.09%     63.64% # Class of executed instruction
system.cpu3.op_class::SimdFloatDiv                  1      4.55%     68.18% # Class of executed instruction
system.cpu3.op_class::SimdFloatMisc                 0      0.00%     68.18% # Class of executed instruction
system.cpu3.op_class::SimdFloatMult                 1      4.55%     72.73% # Class of executed instruction
system.cpu3.op_class::SimdFloatMultAcc              0      0.00%     72.73% # Class of executed instruction
system.cpu3.op_class::SimdFloatSqrt                 1      4.55%     77.27% # Class of executed instruction
system.cpu3.op_class::SimdReduceAdd                 0      0.00%     77.27% # Class of executed instruction
system.cpu3.op_class::SimdReduceAlu                 0      0.00%     77.27% # Class of executed instruction
system.cpu3.op_class::SimdReduceCmp                 0      0.00%     77.27% # Class of executed instruction
system.cpu3.op_class::SimdFloatReduceAdd            0      0.00%     77.27% # Class of executed instruction
system.cpu3.op_class::SimdFloatReduceCmp            0      0.00%     77.27% # Class of executed instruction
system.cpu3.op_class::SimdAes                       0      0.00%     77.27% # Class of executed instruction
system.cpu3.op_class::SimdAesMix                    0      0.00%     77.27% # Class of executed instruction
system.cpu3.op_class::SimdSha1Hash                  0      0.00%     77.27% # Class of executed instruction
system.cpu3.op_class::SimdSha1Hash2                 0      0.00%     77.27% # Class of executed instruction
system.cpu3.op_class::SimdSha256Hash                0      0.00%     77.27% # Class of executed instruction
system.cpu3.op_class::SimdSha256Hash2               0      0.00%     77.27% # Class of executed instruction
system.cpu3.op_class::SimdShaSigma2                 0      0.00%     77.27% # Class of executed instruction
system.cpu3.op_class::SimdShaSigma3                 0      0.00%     77.27% # Class of executed instruction
system.cpu3.op_class::SimdPredAlu                   0      0.00%     77.27% # Class of executed instruction
system.cpu3.op_class::MemRead                       1      4.55%     81.82% # Class of executed instruction
system.cpu3.op_class::MemWrite                      0      0.00%     81.82% # Class of executed instruction
system.cpu3.op_class::FloatMemRead                  4     18.18%    100.00% # Class of executed instruction
system.cpu3.op_class::FloatMemWrite                 0      0.00%    100.00% # Class of executed instruction
system.cpu3.op_class::IprAccess                     0      0.00%    100.00% # Class of executed instruction
system.cpu3.op_class::InstPrefetch                  0      0.00%    100.00% # Class of executed instruction
system.cpu3.op_class::total                        22                       # Class of executed instruction
system.cpu3.workload.numSyscalls                    0                       # Number of system calls
system.l3bus.snoop_filter.hit_multi_requests            0                       # Number of requests hitting in the snoop filter with multiple (>1) holders of the requested data.
system.l3bus.snoop_filter.hit_multi_snoops            0                       # Number of snoops hitting in the snoop filter with multiple (>1) holders of the requested data.
system.l3bus.snoop_filter.hit_single_requests      4676743                       # Number of requests hitting in the snoop filter with a single holder of the requested data.
system.l3bus.snoop_filter.hit_single_snoops            0                       # Number of snoops hitting in the snoop filter with a single holder of the requested data.
system.l3bus.snoop_filter.tot_requests        9362220                       # Total number of requests made to the snoop filter.
system.l3bus.snoop_filter.tot_snoops                0                       # Total number of snoops made to the snoop filter.
system.membus.snoop_filter.hit_multi_requests            0                       # Number of requests hitting in the snoop filter with multiple (>1) holders of the requested data.
system.membus.snoop_filter.hit_multi_snoops            0                       # Number of snoops hitting in the snoop filter with multiple (>1) holders of the requested data.
system.membus.snoop_filter.hit_single_requests       479705                       # Number of requests hitting in the snoop filter with a single holder of the requested data.
system.membus.snoop_filter.hit_single_snoops            0                       # Number of snoops hitting in the snoop filter with a single holder of the requested data.
system.membus.snoop_filter.tot_requests       1029061                       # Total number of requests made to the snoop filter.
system.membus.snoop_filter.tot_snoops               0                       # Total number of snoops made to the snoop filter.
system.switch_cpus0.cc_regfile_reads        147102229                       # number of cc regfile reads
system.switch_cpus0.cc_regfile_writes        71477975                       # number of cc regfile writes
system.switch_cpus0.committedInsts          250000000                       # Number of Instructions Simulated
system.switch_cpus0.committedOps            381087492                       # Number of Ops (including micro ops) Simulated
system.switch_cpus0.cpi                      0.628799                       # CPI: Cycles Per Instruction
system.switch_cpus0.cpi_total                0.628799                       # CPI: Total CPI of All Threads
system.switch_cpus0.fp_regfile_reads        410831621                       # number of floating regfile reads
system.switch_cpus0.fp_regfile_writes       196414158                       # number of floating regfile writes
system.switch_cpus0.idleCycles                  14550                       # Total number of cycles that the CPU has spent unscheduled due to idling
system.switch_cpus0.iew.branchMispredicts       276386                       # Number of branch mispredicts detected at execute
system.switch_cpus0.iew.exec_branches        25806370                       # Number of branches executed
system.switch_cpus0.iew.exec_nop                    0                       # number of nop insts executed
system.switch_cpus0.iew.exec_rate            2.552611                       # Inst execution rate
system.switch_cpus0.iew.exec_refs            81101363                       # number of memory reference insts executed
system.switch_cpus0.iew.exec_stores          17191925                       # Number of stores executed
system.switch_cpus0.iew.exec_swp                    0                       # number of swp insts executed
system.switch_cpus0.iew.iewBlockCycles       47147565                       # Number of cycles IEW is blocking
system.switch_cpus0.iew.iewDispLoadInsts     64921309                       # Number of dispatched load instructions
system.switch_cpus0.iew.iewDispNonSpecInsts            0                       # Number of dispatched non-speculative instructions
system.switch_cpus0.iew.iewDispSquashedInsts          898                       # Number of squashed instructions skipped by dispatch
system.switch_cpus0.iew.iewDispStoreInsts     17770401                       # Number of dispatched store instructions
system.switch_cpus0.iew.iewDispatchedInsts    412257161                       # Number of instructions dispatched to IQ
system.switch_cpus0.iew.iewExecLoadInsts     63909438                       # Number of load instructions executed
system.switch_cpus0.iew.iewExecSquashedInsts       458019                       # Number of squashed instructions skipped in execute
system.switch_cpus0.iew.iewExecutedInsts    401270012                       # Number of executed instructions
system.switch_cpus0.iew.iewIQFullEvents        820484                       # Number of times the IQ has become full, causing a stall
system.switch_cpus0.iew.iewIdleCycles               0                       # Number of cycles IEW is idle
system.switch_cpus0.iew.iewLSQFullEvents       118513                       # Number of times the LSQ has become full, causing a stall
system.switch_cpus0.iew.iewSquashCycles        275634                       # Number of cycles IEW is squashing
system.switch_cpus0.iew.iewUnblockCycles      1484596                       # Number of cycles IEW is unblocking
system.switch_cpus0.iew.memOrderViolationEvents          585                       # Number of memory order violations
system.switch_cpus0.iew.predictedNotTakenIncorrect       154258                       # Number of branches that were predicted not taken incorrectly
system.switch_cpus0.iew.predictedTakenIncorrect       122128                       # Number of branches that were predicted taken incorrectly
system.switch_cpus0.iew.wb_consumers        560741760                       # num instructions consuming a value
system.switch_cpus0.iew.wb_count            401108334                       # cumulative count of insts written-back
system.switch_cpus0.iew.wb_fanout            0.555957                       # average fanout of values written-back
system.switch_cpus0.iew.wb_producers        311748551                       # num instructions producing a value
system.switch_cpus0.iew.wb_rate              2.551582                       # insts written-back per cycle
system.switch_cpus0.iew.wb_sent             401180429                       # cumulative count of insts sent to commit
system.switch_cpus0.int_regfile_reads       331831638                       # number of integer regfile reads
system.switch_cpus0.int_regfile_writes      152228587                       # number of integer regfile writes
system.switch_cpus0.ipc                      1.590332                       # IPC: Instructions Per Cycle
system.switch_cpus0.ipc_total                1.590332                       # IPC: Total IPC of All Threads
system.switch_cpus0.iq.FU_type_0::No_OpClass         1603      0.00%      0.00% # Type of FU issued
system.switch_cpus0.iq.FU_type_0::IntAlu    196557027     48.93%     48.93% # Type of FU issued
system.switch_cpus0.iq.FU_type_0::IntMult      2065182      0.51%     49.44% # Type of FU issued
system.switch_cpus0.iq.FU_type_0::IntDiv            0      0.00%     49.44% # Type of FU issued
system.switch_cpus0.iq.FU_type_0::FloatAdd      4078987      1.02%     50.46% # Type of FU issued
system.switch_cpus0.iq.FU_type_0::FloatCmp            0      0.00%     50.46% # Type of FU issued
system.switch_cpus0.iq.FU_type_0::FloatCvt            0      0.00%     50.46% # Type of FU issued
system.switch_cpus0.iq.FU_type_0::FloatMult            0      0.00%     50.46% # Type of FU issued
system.switch_cpus0.iq.FU_type_0::FloatMultAcc            0      0.00%     50.46% # Type of FU issued
system.switch_cpus0.iq.FU_type_0::FloatDiv            0      0.00%     50.46% # Type of FU issued
system.switch_cpus0.iq.FU_type_0::FloatMisc            0      0.00%     50.46% # Type of FU issued
system.switch_cpus0.iq.FU_type_0::FloatSqrt            0      0.00%     50.46% # Type of FU issued
system.switch_cpus0.iq.FU_type_0::SimdAdd            0      0.00%     50.46% # Type of FU issued
system.switch_cpus0.iq.FU_type_0::SimdAddAcc            0      0.00%     50.46% # Type of FU issued
system.switch_cpus0.iq.FU_type_0::SimdAlu      5780090      1.44%     51.90% # Type of FU issued
system.switch_cpus0.iq.FU_type_0::SimdCmp            0      0.00%     51.90% # Type of FU issued
system.switch_cpus0.iq.FU_type_0::SimdCvt            0      0.00%     51.90% # Type of FU issued
system.switch_cpus0.iq.FU_type_0::SimdMisc      2220729      0.55%     52.45% # Type of FU issued
system.switch_cpus0.iq.FU_type_0::SimdMult            0      0.00%     52.45% # Type of FU issued
system.switch_cpus0.iq.FU_type_0::SimdMultAcc            0      0.00%     52.45% # Type of FU issued
system.switch_cpus0.iq.FU_type_0::SimdShift            0      0.00%     52.45% # Type of FU issued
system.switch_cpus0.iq.FU_type_0::SimdShiftAcc            0      0.00%     52.45% # Type of FU issued
system.switch_cpus0.iq.FU_type_0::SimdDiv            0      0.00%     52.45% # Type of FU issued
system.switch_cpus0.iq.FU_type_0::SimdSqrt            0      0.00%     52.45% # Type of FU issued
system.switch_cpus0.iq.FU_type_0::SimdFloatAdd     42683100     10.62%     63.07% # Type of FU issued
system.switch_cpus0.iq.FU_type_0::SimdFloatAlu            0      0.00%     63.07% # Type of FU issued
system.switch_cpus0.iq.FU_type_0::SimdFloatCmp            0      0.00%     63.07% # Type of FU issued
system.switch_cpus0.iq.FU_type_0::SimdFloatCvt     12443994      3.10%     66.17% # Type of FU issued
system.switch_cpus0.iq.FU_type_0::SimdFloatDiv      2409723      0.60%     66.77% # Type of FU issued
system.switch_cpus0.iq.FU_type_0::SimdFloatMisc            0      0.00%     66.77% # Type of FU issued
system.switch_cpus0.iq.FU_type_0::SimdFloatMult     50297631     12.52%     79.29% # Type of FU issued
system.switch_cpus0.iq.FU_type_0::SimdFloatMultAcc            0      0.00%     79.29% # Type of FU issued
system.switch_cpus0.iq.FU_type_0::SimdFloatSqrt      1963404      0.49%     79.78% # Type of FU issued
system.switch_cpus0.iq.FU_type_0::SimdReduceAdd            0      0.00%     79.78% # Type of FU issued
system.switch_cpus0.iq.FU_type_0::SimdReduceAlu            0      0.00%     79.78% # Type of FU issued
system.switch_cpus0.iq.FU_type_0::SimdReduceCmp            0      0.00%     79.78% # Type of FU issued
system.switch_cpus0.iq.FU_type_0::SimdFloatReduceAdd            0      0.00%     79.78% # Type of FU issued
system.switch_cpus0.iq.FU_type_0::SimdFloatReduceCmp            0      0.00%     79.78% # Type of FU issued
system.switch_cpus0.iq.FU_type_0::SimdAes            0      0.00%     79.78% # Type of FU issued
system.switch_cpus0.iq.FU_type_0::SimdAesMix            0      0.00%     79.78% # Type of FU issued
system.switch_cpus0.iq.FU_type_0::SimdSha1Hash            0      0.00%     79.78% # Type of FU issued
system.switch_cpus0.iq.FU_type_0::SimdSha1Hash2            0      0.00%     79.78% # Type of FU issued
system.switch_cpus0.iq.FU_type_0::SimdSha256Hash            0      0.00%     79.78% # Type of FU issued
system.switch_cpus0.iq.FU_type_0::SimdSha256Hash2            0      0.00%     79.78% # Type of FU issued
system.switch_cpus0.iq.FU_type_0::SimdShaSigma2            0      0.00%     79.78% # Type of FU issued
system.switch_cpus0.iq.FU_type_0::SimdShaSigma3            0      0.00%     79.78% # Type of FU issued
system.switch_cpus0.iq.FU_type_0::SimdPredAlu            0      0.00%     79.78% # Type of FU issued
system.switch_cpus0.iq.FU_type_0::MemRead     11406338      2.84%     82.62% # Type of FU issued
system.switch_cpus0.iq.FU_type_0::MemWrite      5411655      1.35%     83.97% # Type of FU issued
system.switch_cpus0.iq.FU_type_0::FloatMemRead     52612403     13.10%     97.06% # Type of FU issued
system.switch_cpus0.iq.FU_type_0::FloatMemWrite     11796171      2.94%    100.00% # Type of FU issued
system.switch_cpus0.iq.FU_type_0::IprAccess            0      0.00%    100.00% # Type of FU issued
system.switch_cpus0.iq.FU_type_0::InstPrefetch            0      0.00%    100.00% # Type of FU issued
system.switch_cpus0.iq.FU_type_0::total     401728037                       # Type of FU issued
system.switch_cpus0.iq.fp_alu_accesses      223757773                       # Number of floating point alu accesses
system.switch_cpus0.iq.fp_inst_queue_reads    445231208                       # Number of floating instruction queue reads
system.switch_cpus0.iq.fp_inst_queue_wakeup_accesses    221087830                       # Number of floating instruction queue wakeup accesses
system.switch_cpus0.iq.fp_inst_queue_writes    244085504                       # Number of floating instruction queue writes
system.switch_cpus0.iq.fu_busy_cnt            3236241                       # FU busy when requested
system.switch_cpus0.iq.fu_busy_rate          0.008056                       # FU busy rate (busy events/executed inst)
system.switch_cpus0.iq.fu_full::No_OpClass            0      0.00%      0.00% # attempts to use FU when none available
system.switch_cpus0.iq.fu_full::IntAlu          53586      1.66%      1.66% # attempts to use FU when none available
system.switch_cpus0.iq.fu_full::IntMult             0      0.00%      1.66% # attempts to use FU when none available
system.switch_cpus0.iq.fu_full::IntDiv              0      0.00%      1.66% # attempts to use FU when none available
system.switch_cpus0.iq.fu_full::FloatAdd            0      0.00%      1.66% # attempts to use FU when none available
system.switch_cpus0.iq.fu_full::FloatCmp            0      0.00%      1.66% # attempts to use FU when none available
system.switch_cpus0.iq.fu_full::FloatCvt            0      0.00%      1.66% # attempts to use FU when none available
system.switch_cpus0.iq.fu_full::FloatMult            0      0.00%      1.66% # attempts to use FU when none available
system.switch_cpus0.iq.fu_full::FloatMultAcc            0      0.00%      1.66% # attempts to use FU when none available
system.switch_cpus0.iq.fu_full::FloatDiv            0      0.00%      1.66% # attempts to use FU when none available
system.switch_cpus0.iq.fu_full::FloatMisc            0      0.00%      1.66% # attempts to use FU when none available
system.switch_cpus0.iq.fu_full::FloatSqrt            0      0.00%      1.66% # attempts to use FU when none available
system.switch_cpus0.iq.fu_full::SimdAdd             0      0.00%      1.66% # attempts to use FU when none available
system.switch_cpus0.iq.fu_full::SimdAddAcc            0      0.00%      1.66% # attempts to use FU when none available
system.switch_cpus0.iq.fu_full::SimdAlu         43645      1.35%      3.00% # attempts to use FU when none available
system.switch_cpus0.iq.fu_full::SimdCmp             0      0.00%      3.00% # attempts to use FU when none available
system.switch_cpus0.iq.fu_full::SimdCvt             0      0.00%      3.00% # attempts to use FU when none available
system.switch_cpus0.iq.fu_full::SimdMisc            0      0.00%      3.00% # attempts to use FU when none available
system.switch_cpus0.iq.fu_full::SimdMult            0      0.00%      3.00% # attempts to use FU when none available
system.switch_cpus0.iq.fu_full::SimdMultAcc            0      0.00%      3.00% # attempts to use FU when none available
system.switch_cpus0.iq.fu_full::SimdShift            0      0.00%      3.00% # attempts to use FU when none available
system.switch_cpus0.iq.fu_full::SimdShiftAcc            0      0.00%      3.00% # attempts to use FU when none available
system.switch_cpus0.iq.fu_full::SimdDiv             0      0.00%      3.00% # attempts to use FU when none available
system.switch_cpus0.iq.fu_full::SimdSqrt            0      0.00%      3.00% # attempts to use FU when none available
system.switch_cpus0.iq.fu_full::SimdFloatAdd       341425     10.55%     13.55% # attempts to use FU when none available
system.switch_cpus0.iq.fu_full::SimdFloatAlu            0      0.00%     13.55% # attempts to use FU when none available
system.switch_cpus0.iq.fu_full::SimdFloatCmp            0      0.00%     13.55% # attempts to use FU when none available
system.switch_cpus0.iq.fu_full::SimdFloatCvt            0      0.00%     13.55% # attempts to use FU when none available
system.switch_cpus0.iq.fu_full::SimdFloatDiv            0      0.00%     13.55% # attempts to use FU when none available
system.switch_cpus0.iq.fu_full::SimdFloatMisc            0      0.00%     13.55% # attempts to use FU when none available
system.switch_cpus0.iq.fu_full::SimdFloatMult       322897      9.98%     23.53% # attempts to use FU when none available
system.switch_cpus0.iq.fu_full::SimdFloatMultAcc            0      0.00%     23.53% # attempts to use FU when none available
system.switch_cpus0.iq.fu_full::SimdFloatSqrt            0      0.00%     23.53% # attempts to use FU when none available
system.switch_cpus0.iq.fu_full::SimdReduceAdd            0      0.00%     23.53% # attempts to use FU when none available
system.switch_cpus0.iq.fu_full::SimdReduceAlu            0      0.00%     23.53% # attempts to use FU when none available
system.switch_cpus0.iq.fu_full::SimdReduceCmp            0      0.00%     23.53% # attempts to use FU when none available
system.switch_cpus0.iq.fu_full::SimdFloatReduceAdd            0      0.00%     23.53% # attempts to use FU when none available
system.switch_cpus0.iq.fu_full::SimdFloatReduceCmp            0      0.00%     23.53% # attempts to use FU when none available
system.switch_cpus0.iq.fu_full::SimdAes             0      0.00%     23.53% # attempts to use FU when none available
system.switch_cpus0.iq.fu_full::SimdAesMix            0      0.00%     23.53% # attempts to use FU when none available
system.switch_cpus0.iq.fu_full::SimdSha1Hash            0      0.00%     23.53% # attempts to use FU when none available
system.switch_cpus0.iq.fu_full::SimdSha1Hash2            0      0.00%     23.53% # attempts to use FU when none available
system.switch_cpus0.iq.fu_full::SimdSha256Hash            0      0.00%     23.53% # attempts to use FU when none available
system.switch_cpus0.iq.fu_full::SimdSha256Hash2            0      0.00%     23.53% # attempts to use FU when none available
system.switch_cpus0.iq.fu_full::SimdShaSigma2            0      0.00%     23.53% # attempts to use FU when none available
system.switch_cpus0.iq.fu_full::SimdShaSigma3            0      0.00%     23.53% # attempts to use FU when none available
system.switch_cpus0.iq.fu_full::SimdPredAlu            0      0.00%     23.53% # attempts to use FU when none available
system.switch_cpus0.iq.fu_full::MemRead        492449     15.22%     38.75% # attempts to use FU when none available
system.switch_cpus0.iq.fu_full::MemWrite       374217     11.56%     50.31% # attempts to use FU when none available
system.switch_cpus0.iq.fu_full::FloatMemRead       826192     25.53%     75.84% # attempts to use FU when none available
system.switch_cpus0.iq.fu_full::FloatMemWrite       781830     24.16%    100.00% # attempts to use FU when none available
system.switch_cpus0.iq.fu_full::IprAccess            0      0.00%    100.00% # attempts to use FU when none available
system.switch_cpus0.iq.fu_full::InstPrefetch            0      0.00%    100.00% # attempts to use FU when none available
system.switch_cpus0.iq.int_alu_accesses     181204902                       # Number of integer alu accesses
system.switch_cpus0.iq.int_inst_queue_reads    518731497                       # Number of integer instruction queue reads
system.switch_cpus0.iq.int_inst_queue_wakeup_accesses    180020504                       # Number of integer instruction queue wakeup accesses
system.switch_cpus0.iq.int_inst_queue_writes    199341799                       # Number of integer instruction queue writes
system.switch_cpus0.iq.iqInstsAdded         412257161                       # Number of instructions added to the IQ (excludes non-spec)
system.switch_cpus0.iq.iqInstsIssued        401728037                       # Number of instructions issued
system.switch_cpus0.iq.iqSquashedInstsExamined     31169557                       # Number of squashed instructions iterated over during squash; mainly for profiling
system.switch_cpus0.iq.iqSquashedInstsIssued        85093                       # Number of squashed instructions issued
system.switch_cpus0.iq.iqSquashedOperandsExamined     32376642                       # Number of squashed operands that are examined and possibly removed from graph
system.switch_cpus0.iq.issued_per_cycle::samples    157185303                       # Number of insts issued each cycle
system.switch_cpus0.iq.issued_per_cycle::mean     2.555761                       # Number of insts issued each cycle
system.switch_cpus0.iq.issued_per_cycle::stdev     2.586999                       # Number of insts issued each cycle
system.switch_cpus0.iq.issued_per_cycle::underflows            0      0.00%      0.00% # Number of insts issued each cycle
system.switch_cpus0.iq.issued_per_cycle::0     59385924     37.78%     37.78% # Number of insts issued each cycle
system.switch_cpus0.iq.issued_per_cycle::1     11985794      7.63%     45.41% # Number of insts issued each cycle
system.switch_cpus0.iq.issued_per_cycle::2     14237784      9.06%     54.46% # Number of insts issued each cycle
system.switch_cpus0.iq.issued_per_cycle::3     14298412      9.10%     63.56% # Number of insts issued each cycle
system.switch_cpus0.iq.issued_per_cycle::4     17264890     10.98%     74.54% # Number of insts issued each cycle
system.switch_cpus0.iq.issued_per_cycle::5     13878380      8.83%     83.37% # Number of insts issued each cycle
system.switch_cpus0.iq.issued_per_cycle::6     11292180      7.18%     90.56% # Number of insts issued each cycle
system.switch_cpus0.iq.issued_per_cycle::7      6568613      4.18%     94.74% # Number of insts issued each cycle
system.switch_cpus0.iq.issued_per_cycle::8      8273326      5.26%    100.00% # Number of insts issued each cycle
system.switch_cpus0.iq.issued_per_cycle::overflows            0      0.00%    100.00% # Number of insts issued each cycle
system.switch_cpus0.iq.issued_per_cycle::min_value            0                       # Number of insts issued each cycle
system.switch_cpus0.iq.issued_per_cycle::max_value            8                       # Number of insts issued each cycle
system.switch_cpus0.iq.issued_per_cycle::total    157185303                       # Number of insts issued each cycle
system.switch_cpus0.iq.rate                  2.555524                       # Inst issue rate
system.switch_cpus0.iq.vec_alu_accesses             0                       # Number of vector alu accesses
system.switch_cpus0.iq.vec_inst_queue_reads            0                       # Number of vector instruction queue reads
system.switch_cpus0.iq.vec_inst_queue_wakeup_accesses            0                       # Number of vector instruction queue wakeup accesses
system.switch_cpus0.iq.vec_inst_queue_writes            0                       # Number of vector instruction queue writes
system.switch_cpus0.memDep0.conflictingLoads      5002199                       # Number of conflicting loads.
system.switch_cpus0.memDep0.conflictingStores       558567                       # Number of conflicting stores.
system.switch_cpus0.memDep0.insertedLoads     64921309                       # Number of loads inserted to the mem dependence unit.
system.switch_cpus0.memDep0.insertedStores     17770401                       # Number of stores inserted to the mem dependence unit.
system.switch_cpus0.misc_regfile_reads      156302959                       # number of misc regfile reads
system.switch_cpus0.misc_regfile_writes             1                       # number of misc regfile writes
system.switch_cpus0.numCycles               157199853                       # number of cpu cycles simulated
system.switch_cpus0.numWorkItemsCompleted            0                       # number of work items this cpu completed
system.switch_cpus0.numWorkItemsStarted             0                       # number of work items this cpu started
system.switch_cpus0.timesIdled                     67                       # Number of times that the entire CPU went into an idle state and unscheduled itself
system.switch_cpus1.cc_regfile_reads        146943827                       # number of cc regfile reads
system.switch_cpus1.cc_regfile_writes        71400995                       # number of cc regfile writes
system.switch_cpus1.committedInsts          249731070                       # Number of Instructions Simulated
system.switch_cpus1.committedOps            380677587                       # Number of Ops (including micro ops) Simulated
system.switch_cpus1.cpi                      0.629477                       # CPI: Cycles Per Instruction
system.switch_cpus1.cpi_total                0.629477                       # CPI: Total CPI of All Threads
system.switch_cpus1.fp_regfile_reads        410390531                       # number of floating regfile reads
system.switch_cpus1.fp_regfile_writes       196203795                       # number of floating regfile writes
system.switch_cpus1.idleCycles                  14452                       # Total number of cycles that the CPU has spent unscheduled due to idling
system.switch_cpus1.iew.branchMispredicts       276092                       # Number of branch mispredicts detected at execute
system.switch_cpus1.iew.exec_branches        25778628                       # Number of branches executed
system.switch_cpus1.iew.exec_nop                    0                       # number of nop insts executed
system.switch_cpus1.iew.exec_rate            2.549879                       # Inst execution rate
system.switch_cpus1.iew.exec_refs            81014730                       # number of memory reference insts executed
system.switch_cpus1.iew.exec_stores          17173577                       # Number of stores executed
system.switch_cpus1.iew.exec_swp                    0                       # number of swp insts executed
system.switch_cpus1.iew.iewBlockCycles       47206092                       # Number of cycles IEW is blocking
system.switch_cpus1.iew.iewDispLoadInsts     64852175                       # Number of dispatched load instructions
system.switch_cpus1.iew.iewDispNonSpecInsts            0                       # Number of dispatched non-speculative instructions
system.switch_cpus1.iew.iewDispSquashedInsts          908                       # Number of squashed instructions skipped by dispatch
system.switch_cpus1.iew.iewDispStoreInsts     17751532                       # Number of dispatched store instructions
system.switch_cpus1.iew.iewDispatchedInsts    411817394                       # Number of instructions dispatched to IQ
system.switch_cpus1.iew.iewExecLoadInsts     63841153                       # Number of load instructions executed
system.switch_cpus1.iew.iewExecSquashedInsts       457414                       # Number of squashed instructions skipped in execute
system.switch_cpus1.iew.iewExecutedInsts    400840567                       # Number of executed instructions
system.switch_cpus1.iew.iewIQFullEvents        821357                       # Number of times the IQ has become full, causing a stall
system.switch_cpus1.iew.iewIdleCycles               0                       # Number of cycles IEW is idle
system.switch_cpus1.iew.iewLSQFullEvents       117033                       # Number of times the LSQ has become full, causing a stall
system.switch_cpus1.iew.iewSquashCycles        275388                       # Number of cycles IEW is squashing
system.switch_cpus1.iew.iewUnblockCycles      1484722                       # Number of cycles IEW is unblocking
system.switch_cpus1.iew.memOrderViolationEvents          635                       # Number of memory order violations
system.switch_cpus1.iew.predictedNotTakenIncorrect       154091                       # Number of branches that were predicted not taken incorrectly
system.switch_cpus1.iew.predictedTakenIncorrect       122001                       # Number of branches that were predicted taken incorrectly
system.switch_cpus1.iew.wb_consumers        560132081                       # num instructions consuming a value
system.switch_cpus1.iew.wb_count            400678963                       # cumulative count of insts written-back
system.switch_cpus1.iew.wb_fanout            0.555958                       # average fanout of values written-back
system.switch_cpus1.iew.wb_producers        311410125                       # num instructions producing a value
system.switch_cpus1.iew.wb_rate              2.548851                       # insts written-back per cycle
system.switch_cpus1.iew.wb_sent             400750901                       # cumulative count of insts sent to commit
system.switch_cpus1.int_regfile_reads       331476243                       # number of integer regfile reads
system.switch_cpus1.int_regfile_writes      152065808                       # number of integer regfile writes
system.switch_cpus1.ipc                      1.588622                       # IPC: Instructions Per Cycle
system.switch_cpus1.ipc_total                1.588622                       # IPC: Total IPC of All Threads
system.switch_cpus1.iq.FU_type_0::No_OpClass         1598      0.00%      0.00% # Type of FU issued
system.switch_cpus1.iq.FU_type_0::IntAlu    196346578     48.93%     48.93% # Type of FU issued
system.switch_cpus1.iq.FU_type_0::IntMult      2062931      0.51%     49.44% # Type of FU issued
system.switch_cpus1.iq.FU_type_0::IntDiv            0      0.00%     49.44% # Type of FU issued
system.switch_cpus1.iq.FU_type_0::FloatAdd      4074836      1.02%     50.46% # Type of FU issued
system.switch_cpus1.iq.FU_type_0::FloatCmp            0      0.00%     50.46% # Type of FU issued
system.switch_cpus1.iq.FU_type_0::FloatCvt            0      0.00%     50.46% # Type of FU issued
system.switch_cpus1.iq.FU_type_0::FloatMult            0      0.00%     50.46% # Type of FU issued
system.switch_cpus1.iq.FU_type_0::FloatMultAcc            0      0.00%     50.46% # Type of FU issued
system.switch_cpus1.iq.FU_type_0::FloatDiv            0      0.00%     50.46% # Type of FU issued
system.switch_cpus1.iq.FU_type_0::FloatMisc            0      0.00%     50.46% # Type of FU issued
system.switch_cpus1.iq.FU_type_0::FloatSqrt            0      0.00%     50.46% # Type of FU issued
system.switch_cpus1.iq.FU_type_0::SimdAdd            0      0.00%     50.46% # Type of FU issued
system.switch_cpus1.iq.FU_type_0::SimdAddAcc            0      0.00%     50.46% # Type of FU issued
system.switch_cpus1.iq.FU_type_0::SimdAlu      5774181      1.44%     51.90% # Type of FU issued
system.switch_cpus1.iq.FU_type_0::SimdCmp            0      0.00%     51.90% # Type of FU issued
system.switch_cpus1.iq.FU_type_0::SimdCvt            0      0.00%     51.90% # Type of FU issued
system.switch_cpus1.iq.FU_type_0::SimdMisc      2218354      0.55%     52.45% # Type of FU issued
system.switch_cpus1.iq.FU_type_0::SimdMult            0      0.00%     52.45% # Type of FU issued
system.switch_cpus1.iq.FU_type_0::SimdMultAcc            0      0.00%     52.45% # Type of FU issued
system.switch_cpus1.iq.FU_type_0::SimdShift            0      0.00%     52.45% # Type of FU issued
system.switch_cpus1.iq.FU_type_0::SimdShiftAcc            0      0.00%     52.45% # Type of FU issued
system.switch_cpus1.iq.FU_type_0::SimdDiv            0      0.00%     52.45% # Type of FU issued
system.switch_cpus1.iq.FU_type_0::SimdSqrt            0      0.00%     52.45% # Type of FU issued
system.switch_cpus1.iq.FU_type_0::SimdFloatAdd     42637204     10.62%     63.07% # Type of FU issued
system.switch_cpus1.iq.FU_type_0::SimdFloatAlu            0      0.00%     63.07% # Type of FU issued
system.switch_cpus1.iq.FU_type_0::SimdFloatCmp            0      0.00%     63.07% # Type of FU issued
system.switch_cpus1.iq.FU_type_0::SimdFloatCvt     12430613      3.10%     66.17% # Type of FU issued
system.switch_cpus1.iq.FU_type_0::SimdFloatDiv      2407136      0.60%     66.77% # Type of FU issued
system.switch_cpus1.iq.FU_type_0::SimdFloatMisc            0      0.00%     66.77% # Type of FU issued
system.switch_cpus1.iq.FU_type_0::SimdFloatMult     50243436     12.52%     79.29% # Type of FU issued
system.switch_cpus1.iq.FU_type_0::SimdFloatMultAcc            0      0.00%     79.29% # Type of FU issued
system.switch_cpus1.iq.FU_type_0::SimdFloatSqrt      1961288      0.49%     79.78% # Type of FU issued
system.switch_cpus1.iq.FU_type_0::SimdReduceAdd            0      0.00%     79.78% # Type of FU issued
system.switch_cpus1.iq.FU_type_0::SimdReduceAlu            0      0.00%     79.78% # Type of FU issued
system.switch_cpus1.iq.FU_type_0::SimdReduceCmp            0      0.00%     79.78% # Type of FU issued
system.switch_cpus1.iq.FU_type_0::SimdFloatReduceAdd            0      0.00%     79.78% # Type of FU issued
system.switch_cpus1.iq.FU_type_0::SimdFloatReduceCmp            0      0.00%     79.78% # Type of FU issued
system.switch_cpus1.iq.FU_type_0::SimdAes            0      0.00%     79.78% # Type of FU issued
system.switch_cpus1.iq.FU_type_0::SimdAesMix            0      0.00%     79.78% # Type of FU issued
system.switch_cpus1.iq.FU_type_0::SimdSha1Hash            0      0.00%     79.78% # Type of FU issued
[...]
system.switch_cpus3.commit.numCommittedDist::stdev     3.218678                       # Number of insts commited each cycle
system.switch_cpus3.commit.numCommittedDist::underflows            0      0.00%      0.00% # Number of insts commited each cycle
system.switch_cpus3.commit.numCommittedDist::0     73282362     47.84%     47.84% # Number of insts commited each cycle
system.switch_cpus3.commit.numCommittedDist::1     20755769     13.55%     61.39% # Number of insts commited each cycle
system.switch_cpus3.commit.numCommittedDist::2      6052697      3.95%     65.34% # Number of insts commited each cycle
system.switch_cpus3.commit.numCommittedDist::3      6468792      4.22%     69.57% # Number of insts commited each cycle
system.switch_cpus3.commit.numCommittedDist::4      7784649      5.08%     74.65% # Number of insts commited each cycle
system.switch_cpus3.commit.numCommittedDist::5      2590601      1.69%     76.34% # Number of insts commited each cycle
system.switch_cpus3.commit.numCommittedDist::6      2566552      1.68%     78.02% # Number of insts commited each cycle
system.switch_cpus3.commit.numCommittedDist::7       471367      0.31%     78.32% # Number of insts commited each cycle
system.switch_cpus3.commit.numCommittedDist::8     33202449     21.68%    100.00% # Number of insts commited each cycle
system.switch_cpus3.commit.numCommittedDist::overflows            0      0.00%    100.00% # Number of insts commited each cycle
system.switch_cpus3.commit.numCommittedDist::min_value            0                       # Number of insts commited each cycle
system.switch_cpus3.commit.numCommittedDist::max_value            8                       # Number of insts commited each cycle
system.switch_cpus3.commit.numCommittedDist::total    153175238                       # Number of insts commited each cycle
system.switch_cpus3.commit.instsCommitted    249731090                       # Number of instructions committed
system.switch_cpus3.commit.opsCommitted     380677613                       # Number of ops (including micro ops) committed
system.switch_cpus3.commit.memRefs           75158056                       # Number of memory references committed
system.switch_cpus3.commit.loads             61071085                       # Number of loads committed
system.switch_cpus3.commit.amos                     0                       # Number of atomic instructions committed
system.switch_cpus3.commit.membars                  0                       # Number of memory barriers committed
system.switch_cpus3.commit.branches          24499589                       # Number of branches committed
system.switch_cpus3.commit.vector                   0                       # Number of committed Vector instructions.
system.switch_cpus3.commit.floating         213124108                       # Number of committed floating point instructions.
system.switch_cpus3.commit.integer          230002989                       # Number of committed integer instructions.
system.switch_cpus3.commit.functionCalls       283391                       # Number of function calls committed.
system.switch_cpus3.commit.committedInstType_0::No_OpClass         1372      0.00%      0.00% # Class of committed instruction
system.switch_cpus3.commit.committedInstType_0::IntAlu    185281226     48.67%     48.67% # Class of committed instruction
system.switch_cpus3.commit.committedInstType_0::IntMult      1962660      0.52%     49.19% # Class of committed instruction
system.switch_cpus3.commit.committedInstType_0::IntDiv            0      0.00%     49.19% # Class of committed instruction
system.switch_cpus3.commit.committedInstType_0::FloatAdd      3401588      0.89%     50.08% # Class of committed instruction
system.switch_cpus3.commit.committedInstType_0::FloatCmp            0      0.00%     50.08% # Class of committed instruction
system.switch_cpus3.commit.committedInstType_0::FloatCvt            0      0.00%     50.08% # Class of committed instruction
system.switch_cpus3.commit.committedInstType_0::FloatMult            0      0.00%     50.08% # Class of committed instruction
system.switch_cpus3.commit.committedInstType_0::FloatMultAcc            0      0.00%     50.08% # Class of committed instruction
system.switch_cpus3.commit.committedInstType_0::FloatDiv            0      0.00%     50.08% # Class of committed instruction
system.switch_cpus3.commit.committedInstType_0::FloatMisc            0      0.00%     50.08% # Class of committed instruction
system.switch_cpus3.commit.committedInstType_0::FloatSqrt            0      0.00%     50.08% # Class of committed instruction
system.switch_cpus3.commit.committedInstType_0::SimdAdd            0      0.00%     50.08% # Class of committed instruction
system.switch_cpus3.commit.committedInstType_0::SimdAddAcc            0      0.00%     50.08% # Class of committed instruction
system.switch_cpus3.commit.committedInstType_0::SimdAlu      5129236      1.35%     51.43% # Class of committed instruction
system.switch_cpus3.commit.committedInstType_0::SimdCmp            0      0.00%     51.43% # Class of committed instruction
system.switch_cpus3.commit.committedInstType_0::SimdCvt            0      0.00%     51.43% # Class of committed instruction
system.switch_cpus3.commit.committedInstType_0::SimdMisc      1983737      0.52%     51.95% # Class of committed instruction
system.switch_cpus3.commit.committedInstType_0::SimdMult            0      0.00%     51.95% # Class of committed instruction
system.switch_cpus3.commit.committedInstType_0::SimdMultAcc            0      0.00%     51.95% # Class of committed instruction
system.switch_cpus3.commit.committedInstType_0::SimdShift            0      0.00%     51.95% # Class of committed instruction
system.switch_cpus3.commit.committedInstType_0::SimdShiftAcc            0      0.00%     51.95% # Class of committed instruction
system.switch_cpus3.commit.committedInstType_0::SimdDiv            0      0.00%     51.95% # Class of committed instruction
system.switch_cpus3.commit.committedInstType_0::SimdSqrt            0      0.00%     51.95% # Class of committed instruction
system.switch_cpus3.commit.committedInstType_0::SimdFloatAdd     42188151     11.08%     63.03% # Class of committed instruction
system.switch_cpus3.commit.committedInstType_0::SimdFloatAlu            0      0.00%     63.03% # Class of committed instruction
system.switch_cpus3.commit.committedInstType_0::SimdFloatCmp            0      0.00%     63.03% # Class of committed instruction
system.switch_cpus3.commit.committedInstType_0::SimdFloatCvt     12164984      3.20%     66.23% # Class of committed instruction
system.switch_cpus3.commit.committedInstType_0::SimdFloatDiv      2277749      0.60%     66.83% # Class of committed instruction
system.switch_cpus3.commit.committedInstType_0::SimdFloatMisc            0      0.00%     66.83% # Class of committed instruction
system.switch_cpus3.commit.committedInstType_0::SimdFloatMult     49167566     12.92%     79.74% # Class of committed instruction
system.switch_cpus3.commit.committedInstType_0::SimdFloatMultAcc            0      0.00%     79.74% # Class of committed instruction
system.switch_cpus3.commit.committedInstType_0::SimdFloatSqrt      1961288      0.52%     80.26% # Class of committed instruction
system.switch_cpus3.commit.committedInstType_0::SimdReduceAdd            0      0.00%     80.26% # Class of committed instruction
system.switch_cpus3.commit.committedInstType_0::SimdReduceAlu            0      0.00%     80.26% # Class of committed instruction
system.switch_cpus3.commit.committedInstType_0::SimdReduceCmp            0      0.00%     80.26% # Class of committed instruction
system.switch_cpus3.commit.committedInstType_0::SimdFloatReduceAdd            0      0.00%     80.26% # Class of committed instruction
system.switch_cpus3.commit.committedInstType_0::SimdFloatReduceCmp            0      0.00%     80.26% # Class of committed instruction
system.switch_cpus3.commit.committedInstType_0::SimdAes            0      0.00%     80.26% # Class of committed instruction
system.switch_cpus3.commit.committedInstType_0::SimdAesMix            0      0.00%     80.26% # Class of committed instruction
system.switch_cpus3.commit.committedInstType_0::SimdSha1Hash            0      0.00%     80.26% # Class of committed instruction
system.switch_cpus3.commit.committedInstType_0::SimdSha1Hash2            0      0.00%     80.26% # Class of committed instruction
system.switch_cpus3.commit.committedInstType_0::SimdSha256Hash            0      0.00%     80.26% # Class of committed instruction
system.switch_cpus3.commit.committedInstType_0::SimdSha256Hash2            0      0.00%     80.26% # Class of committed instruction
system.switch_cpus3.commit.committedInstType_0::SimdShaSigma2            0      0.00%     80.26% # Class of committed instruction
system.switch_cpus3.commit.committedInstType_0::SimdShaSigma3            0      0.00%     80.26% # Class of committed instruction
system.switch_cpus3.commit.committedInstType_0::SimdPredAlu            0      0.00%     80.26% # Class of committed instruction
system.switch_cpus3.commit.committedInstType_0::MemRead     10719347      2.82%     83.07% # Class of committed instruction
system.switch_cpus3.commit.committedInstType_0::MemWrite      3971590      1.04%     84.12% # Class of committed instruction
system.switch_cpus3.commit.committedInstType_0::FloatMemRead     50351738     13.23%     97.34% # Class of committed instruction
system.switch_cpus3.commit.committedInstType_0::FloatMemWrite     10115381      2.66%    100.00% # Class of committed instruction
system.switch_cpus3.commit.committedInstType_0::IprAccess            0      0.00%    100.00% # Class of committed instruction
system.switch_cpus3.commit.committedInstType_0::InstPrefetch            0      0.00%    100.00% # Class of committed instruction
system.switch_cpus3.commit.committedInstType_0::total    380677613                       # Class of committed instruction
system.switch_cpus3.commit.commitEligibleSamples     33202449                       # number cycles where commit BW limit reached
system.switch_cpus3.decode.idleCycles        10886400                       # Number of cycles decode is idle
system.switch_cpus3.decode.blockedCycles     91805889                       # Number of cycles decode is blocked
system.switch_cpus3.decode.runCycles         32708468                       # Number of cycles decode is running
system.switch_cpus3.decode.unblockCycles     21509439                       # Number of cycles decode is unblocking
system.switch_cpus3.decode.squashCycles        275391                       # Number of cycles decode is squashing
system.switch_cpus3.decode.branchResolved     11534161                       # Number of times decode resolved a  branch
system.switch_cpus3.decode.branchMispred           40                       # Number of times decode detected a branch misprediction
system.switch_cpus3.decode.decodedInsts     416839884                       # Number of instructions handled by decode
system.switch_cpus3.decode.squashedInsts          164                       # Number of squashed instructions handled by decode
system.switch_cpus3.dtb.rdAccesses           63841012                       # TLB accesses on read requests
system.switch_cpus3.dtb.wrAccesses           17173587                       # TLB accesses on write requests
system.switch_cpus3.dtb.rdMisses                73104                       # TLB misses on read requests
system.switch_cpus3.dtb.wrMisses                    1                       # TLB misses on write requests
system.switch_cpus3.dtb.walker.power_state.pwrStateResidencyTicks::UNDEFINED 16944250395726                       # Cumulative time (in ticks) in various power states
system.switch_cpus3.fetch.icacheStallCycles       273335                       # Number of cycles fetch is stalled on an Icache miss
system.switch_cpus3.fetch.insts             276817504                       # Number of instructions fetch has processed
system.switch_cpus3.fetch.branches           26935930                       # Number of branches that fetch encountered
system.switch_cpus3.fetch.predictedBranches     12645312                       # Number of branches that fetch has predicted taken
system.switch_cpus3.fetch.cycles            156636830                       # Number of cycles fetch has run and was not squashing or blocked
system.switch_cpus3.fetch.squashCycles         550862                       # Number of cycles fetch has spent squashing
system.switch_cpus3.fetch.cacheLines         31421978                       # Number of cache lines fetched
system.switch_cpus3.fetch.icacheSquashes           60                       # Number of outstanding Icache misses that were squashed
system.switch_cpus3.fetch.nisnDist::samples    157185596                       # Number of instructions fetched each cycle (Total)
system.switch_cpus3.fetch.nisnDist::mean     2.691877                       # Number of instructions fetched each cycle (Total)
system.switch_cpus3.fetch.nisnDist::stdev     3.375063                       # Number of instructions fetched each cycle (Total)
system.switch_cpus3.fetch.nisnDist::underflows            0      0.00%      0.00% # Number of instructions fetched each cycle (Total)
system.switch_cpus3.fetch.nisnDist::0        83716165     53.26%     53.26% # Number of instructions fetched each cycle (Total)
system.switch_cpus3.fetch.nisnDist::1         6153876      3.92%     57.17% # Number of instructions fetched each cycle (Total)
system.switch_cpus3.fetch.nisnDist::2         6665349      4.24%     61.41% # Number of instructions fetched each cycle (Total)
system.switch_cpus3.fetch.nisnDist::3         5649941      3.59%     65.01% # Number of instructions fetched each cycle (Total)
system.switch_cpus3.fetch.nisnDist::4         7429017      4.73%     69.74% # Number of instructions fetched each cycle (Total)
system.switch_cpus3.fetch.nisnDist::5         5218738      3.32%     73.06% # Number of instructions fetched each cycle (Total)
system.switch_cpus3.fetch.nisnDist::6         2523805      1.61%     74.66% # Number of instructions fetched each cycle (Total)
system.switch_cpus3.fetch.nisnDist::7         2892275      1.84%     76.50% # Number of instructions fetched each cycle (Total)
system.switch_cpus3.fetch.nisnDist::8        36936430     23.50%    100.00% # Number of instructions fetched each cycle (Total)
system.switch_cpus3.fetch.nisnDist::overflows            0      0.00%    100.00% # Number of instructions fetched each cycle (Total)
system.switch_cpus3.fetch.nisnDist::min_value            0                       # Number of instructions fetched each cycle (Total)
system.switch_cpus3.fetch.nisnDist::max_value            8                       # Number of instructions fetched each cycle (Total)
system.switch_cpus3.fetch.nisnDist::total    157185596                       # Number of instructions fetched each cycle (Total)
system.switch_cpus3.fetch.branchRate         0.171348                       # Number of branch fetches per cycle
system.switch_cpus3.fetch.rate               1.760927                       # Number of inst fetches per cycle
system.switch_cpus3.itb.rdAccesses                  0                       # TLB accesses on read requests
system.switch_cpus3.itb.wrAccesses           31421978                       # TLB accesses on write requests
system.switch_cpus3.itb.rdMisses                    0                       # TLB misses on read requests
system.switch_cpus3.itb.wrMisses                   10                       # TLB misses on write requests
system.switch_cpus3.itb.walker.power_state.pwrStateResidencyTicks::UNDEFINED 16944250395726                       # Cumulative time (in ticks) in various power states
system.switch_cpus3.lsq0.forwLoads             494946                       # Number of loads that had data forwarded from stores
system.switch_cpus3.lsq0.squashedLoads        3780892                       # Number of loads squashed
system.switch_cpus3.lsq0.ignoredResponses           11                       # Number of memory responses ignored because the instruction is squashed
system.switch_cpus3.lsq0.memOrderViolation          635                       # Number of memory ordering violations
system.switch_cpus3.lsq0.squashedStores       3664546                       # Number of stores squashed
system.switch_cpus3.lsq0.rescheduledLoads            0                       # Number of loads that were rescheduled
system.switch_cpus3.lsq0.blockedByCache             1                       # Number of times an access to memory failed due to the cache being blocked
system.switch_cpus3.power_state.pwrStateResidencyTicks::OFF  52347561372                       # Cumulative time (in ticks) in various power states
system.switch_cpus3.rename.squashCycles        275391                       # Number of cycles rename is squashing
system.switch_cpus3.rename.idleCycles        18186548                       # Number of cycles rename is idle
system.switch_cpus3.rename.blockCycles       57822685                       # Number of cycles rename is blocking
system.switch_cpus3.rename.serializeStallCycles            0                       # count of cycles rename stalledfor serializing inst
system.switch_cpus3.rename.runCycles         46382245                       # Number of cycles rename is running
system.switch_cpus3.rename.unblockCycles     34518718                       # Number of cycles rename is unblocking
system.switch_cpus3.rename.renamedInsts     414977215                       # Number of instructions processed by rename
system.switch_cpus3.rename.ROBFullEvents       233945                       # Number of times rename has blocked due to ROB full
system.switch_cpus3.rename.IQFullEvents      25412093                       # Number of times rename has blocked due to IQ full
system.switch_cpus3.rename.LQFullEvents       3265152                       # Number of times rename has blocked due to LQ full
system.switch_cpus3.rename.SQFullEvents          1100                       # Number of times rename has blocked due to SQ full
system.switch_cpus3.rename.renamedOperands    435878271                       # Number of destination operands rename has renamed
system.switch_cpus3.rename.lookups         1085082156                       # Number of register rename lookups that rename has made
system.switch_cpus3.rename.intLookups       344150957                       # Number of integer rename lookups
system.switch_cpus3.rename.fpLookups        429485848                       # Number of floating rename lookups
system.switch_cpus3.rename.committedMaps    400675274                       # Number of HB maps that are committed
system.switch_cpus3.rename.undoneMaps        35202858                       # Number of HB maps that are undone due to squashing
system.switch_cpus3.rename.serializing              0                       # count of serializing insts renamed
system.switch_cpus3.rename.tempSerializing            0                       # count of temporary serializing insts renamed
system.switch_cpus3.rename.skidInsts         93674597                       # count of insts added to the skid buffer
system.switch_cpus3.rob.reads               531789095                       # The number of ROB reads
system.switch_cpus3.rob.writes              827643142                       # The number of ROB writes
system.switch_cpus3.thread0.numInsts        249731090                       # Number of Instructions committed
system.switch_cpus3.thread0.numOps          380677613                       # Number of Ops committed
system.switch_cpus3.thread0.numMemRefs              0                       # Number of Memory References
system.voltage_domain.voltage                       1                       # Voltage in Volts

---------- End Simulation Statistics   ----------
