Command line:
./runscript_pride.sh leela RFM1.BR2.4C 4 2017 --rh_defense --rh_mitigation=RFM --rh_rfm_per_trefi=1 --rh_rfm_blast_radius=2 --rh_rfm_maxacts_per_trefi=79
Global frequency set at 1000000000000 ticks per second
RFM details - rfm_act_threshold: 79, blast_radius: 2, delay_per_rfm: 175000 ps. sample_rate: 0.012500
RH Defense config: RFM, Bus Delay: 0, rfms_per_trefi: 1, rfm_act_threshold: 79, blast_radius: 2,rfm_delay_per_act: 45000 ps.
DRAM config: RowsPerBank: 65536, BanksPerRank: 32, RanksPerChannel: 1
warn: Sockets disabled, not accepting gdb connections
warn: CoherentXBar system.cpu0.mmucache.mmubus has no snooping ports attached!
warn: CoherentXBar system.cpu1.mmucache.mmubus has no snooping ports attached!
warn: CoherentXBar system.cpu2.mmucache.mmubus has no snooping ports attached!
warn: CoherentXBar system.cpu3.mmucache.mmubus has no snooping ports attached!
warn: Checkpoints for file descriptors currently do not work.
warn: Checkpoints for file descriptors currently do not work.
warn: Checkpoints for file descriptors currently do not work.
warn: Checkpoints for file descriptors currently do not work.
gem5 Simulator System.  http://gem5.org
gem5 is copyrighted software; use the --copyright option for details.

gem5 version 20.1.0.5
gem5 compiled Jul 12 2024 12:42:38
gem5 started Aug  1 2024 16:47:12
gem5 executing on a07dda8b130c, pid 249786
command line: /home/user/PrIDE/performance/gem5/build/X86/gem5.opt --outdir=/home/user/PrIDE/performance/gem5/stats/pride_multiprogram_16GBmem_250Mn.SPEC2017.C4/RFM1.BR2.4C/leela /home/user/PrIDE/performance/gem5/configs/example/se_rq_spec_config_multicore.py --redirects /lib64=/home/utils/gcc-6.2.0/lib64 --benchmark=leela --benchmark_stdout=/home/user/PrIDE/performance/gem5/stats/pride_multiprogram_16GBmem_250Mn.SPEC2017.C4/RFM1.BR2.4C/leela/leela.out --benchmark_stderr=/home/user/PrIDE/performance/gem5/stats/pride_multiprogram_16GBmem_250Mn.SPEC2017.C4/RFM1.BR2.4C/leela/leela.err --spec-version=2017 --rh_defense --rh_mitigation=RFM --rh_rfm_per_trefi=1 --rh_rfm_blast_radius=2 --rh_rfm_maxacts_per_trefi=79 --num-cpus=4 --mem-size=16GB --mem-type=DDR5_2400_32x4 --mem-ranks=1 --mem-channels=1 --checkpoint-dir=/home/user/PrIDE/performance/gem5/cpts-DDR5/multiprogram_16GBmem_25Bn.SPEC2017.C4/leela-1-ref-x86 --checkpoint-restore=25000000000 --at-instruction --cpu-type DerivO3CPU --caches --l2cache --l1d_size=32kB --l1i_size=32kB --l2_size=256kB --l3_size=4MB --l1d_assoc=8 --l1i_assoc=8 --l2_assoc=16 --l3_assoc=16 --cpu-clock=3GHz --sys-clock=3GHz --maxinsts=250000000 --prog-interval=300Hz

info: Standard input is not a terminal, disabling listeners.
Benchmark- 0   leela
Selected benchmark
--> leela
CMD: ['/opt/spec2017/benchspec/CPU/541.leela_r/run/run_base_refrate_gem5_se-m64.0000/leela_r_base.gem5_se-m64', '/opt/spec2017/benchspec/CPU/541.leela_r/run/run_base_refrate_gem5_se-m64.0000/ref.sgf']
CWD: /opt/spec2017/benchspec/CPU/541.leela_r/run/run_base_refrate_gem5_se-m64.0000/
Process stdout file: /home/user/PrIDE/performance/gem5/stats/pride_multiprogram_16GBmem_250Mn.SPEC2017.C4/RFM1.BR2.4C/leela/leela.out_0
Process stderr file: /home/user/PrIDE/performance/gem5/stats/pride_multiprogram_16GBmem_250Mn.SPEC2017.C4/RFM1.BR2.4C/leela/leela.err_0
Benchmark- 1   leela
Selected benchmark
--> leela
CMD: ['/opt/spec2017/benchspec/CPU/541.leela_r/run/run_base_refrate_gem5_se-m64.0000/leela_r_base.gem5_se-m64', '/opt/spec2017/benchspec/CPU/541.leela_r/run/run_base_refrate_gem5_se-m64.0000/ref.sgf']
CWD: /opt/spec2017/benchspec/CPU/541.leela_r/run/run_base_refrate_gem5_se-m64.0000/
Process stdout file: /home/user/PrIDE/performance/gem5/stats/pride_multiprogram_16GBmem_250Mn.SPEC2017.C4/RFM1.BR2.4C/leela/leela.out_1
Process stderr file: /home/user/PrIDE/performance/gem5/stats/pride_multiprogram_16GBmem_250Mn.SPEC2017.C4/RFM1.BR2.4C/leela/leela.err_1
Benchmark- 2   leela
Selected benchmark
--> leela
CMD: ['/opt/spec2017/benchspec/CPU/541.leela_r/run/run_base_refrate_gem5_se-m64.0000/leela_r_base.gem5_se-m64', '/opt/spec2017/benchspec/CPU/541.leela_r/run/run_base_refrate_gem5_se-m64.0000/ref.sgf']
CWD: /opt/spec2017/benchspec/CPU/541.leela_r/run/run_base_refrate_gem5_se-m64.0000/
Process stdout file: /home/user/PrIDE/performance/gem5/stats/pride_multiprogram_16GBmem_250Mn.SPEC2017.C4/RFM1.BR2.4C/leela/leela.out_2
Process stderr file: /home/user/PrIDE/performance/gem5/stats/pride_multiprogram_16GBmem_250Mn.SPEC2017.C4/RFM1.BR2.4C/leela/leela.err_2
Benchmark- 3   leela
Selected benchmark
--> leela
CMD: ['/opt/spec2017/benchspec/CPU/541.leela_r/run/run_base_refrate_gem5_se-m64.0000/leela_r_base.gem5_se-m64', '/opt/spec2017/benchspec/CPU/541.leela_r/run/run_base_refrate_gem5_se-m64.0000/ref.sgf']
CWD: /opt/spec2017/benchspec/CPU/541.leela_r/run/run_base_refrate_gem5_se-m64.0000/
Process stdout file: /home/user/PrIDE/performance/gem5/stats/pride_multiprogram_16GBmem_250Mn.SPEC2017.C4/RFM1.BR2.4C/leela/leela.out_3
Process stderr file: /home/user/PrIDE/performance/gem5/stats/pride_multiprogram_16GBmem_250Mn.SPEC2017.C4/RFM1.BR2.4C/leela/leela.err_3
Workload-0: 
['/opt/spec2017/benchspec/CPU/541.leela_r/run/run_base_refrate_gem5_se-m64.0000/leela_r_base.gem5_se-m64', '/opt/spec2017/benchspec/CPU/541.leela_r/run/run_base_refrate_gem5_se-m64.0000/ref.sgf']
Workload-1: 
['/opt/spec2017/benchspec/CPU/541.leela_r/run/run_base_refrate_gem5_se-m64.0000/leela_r_base.gem5_se-m64', '/opt/spec2017/benchspec/CPU/541.leela_r/run/run_base_refrate_gem5_se-m64.0000/ref.sgf']
Workload-2: 
['/opt/spec2017/benchspec/CPU/541.leela_r/run/run_base_refrate_gem5_se-m64.0000/leela_r_base.gem5_se-m64', '/opt/spec2017/benchspec/CPU/541.leela_r/run/run_base_refrate_gem5_se-m64.0000/ref.sgf']
Workload-3: 
['/opt/spec2017/benchspec/CPU/541.leela_r/run/run_base_refrate_gem5_se-m64.0000/leela_r_base.gem5_se-m64', '/opt/spec2017/benchspec/CPU/541.leela_r/run/run_base_refrate_gem5_se-m64.0000/ref.sgf']
defense_enable:  True  detector:  MG  mitigation:  RFM  threshold:  800
mg_entries:  1700
rfm_maxacts_per_trefi:  79 rfm_per_trefi:  1 rfm_blast_radius:  2
Switch at curTick count:10000
warn: membus.master is deprecated. `master` is now called `mem_side_ports`
warn: No dot file generated. Please install pydot to generate the dot file and pdf.
info: Entering event queue @ 18573644891205.  Starting simulation...
info: Entering event queue @ 18573644901205.  Starting simulation...
warn: PowerState: Already in the requested power state, request ignored
Switched CPUS @ tick 18573644901205
switching cpus
**** REAL SIMULATION ****
info: Entering event queue @ 18573644901528.  Starting simulation...
warn: MOVNTDQ: Ignoring non-temporal hint, modeling as cacheable!
18576978224538: Event_285: system.switch_cpus3 progress event, total committed:18639928, progress insts committed: 18639928, IPC: 01.86213
18576978224538: Event_284: system.switch_cpus2 progress event, total committed:18640100, progress insts committed: 18640100, IPC: 01.86215
18576978224538: Event_283: system.switch_cpus1 progress event, total committed:18639957, progress insts committed: 18639957, IPC: 01.86213
18576978224538: Event_282: system.switch_cpus0 progress event, total committed:18640044, progress insts committed: 18640044, IPC: 01.86214
18580311557871: Event_282: system.switch_cpus0 progress event, total committed:38354833, progress insts committed: 19714789, IPC: 01.96951
18580311557871: Event_283: system.switch_cpus1 progress event, total committed:38354726, progress insts committed: 19714769, IPC: 01.96951
18580311557871: Event_284: system.switch_cpus2 progress event, total committed:38357053, progress insts committed: 19716953, IPC: 01.96972
18580311557871: Event_285: system.switch_cpus3 progress event, total committed:38357118, progress insts committed: 19717190, IPC: 01.96975
18583644891204: Event_285: system.switch_cpus3 progress event, total committed:58134051, progress insts committed: 19776933, IPC: 01.97572
18583644891204: Event_284: system.switch_cpus2 progress event, total committed:58134009, progress insts committed: 19776956, IPC: 01.97572
18583644891204: Event_283: system.switch_cpus1 progress event, total committed:58134072, progress insts committed: 19779346, IPC: 01.97596
18583644891204: Event_282: system.switch_cpus0 progress event, total committed:58134036, progress insts committed: 19779203, IPC: 01.97594
18586978224537: Event_282: system.switch_cpus0 progress event, total committed:78000566, progress insts committed: 19866530, IPC: 01.98467
18586978224537: Event_283: system.switch_cpus1 progress event, total committed:78000753, progress insts committed: 19866681, IPC: 01.98468
18586978224537: Event_284: system.switch_cpus2 progress event, total committed:78000748, progress insts committed: 19866739, IPC: 01.98469
18586978224537: Event_285: system.switch_cpus3 progress event, total committed:78000777, progress insts committed: 19866726, IPC: 01.98469
18590311557870: Event_285: system.switch_cpus3 progress event, total committed:98016348, progress insts committed: 20015571, IPC: 01.99956
18590311557870: Event_284: system.switch_cpus2 progress event, total committed:98016362, progress insts committed: 20015614, IPC: 01.99956
18590311557870: Event_283: system.switch_cpus1 progress event, total committed:98020342, progress insts committed: 20019589, IPC: 01.99996
18590311557870: Event_282: system.switch_cpus0 progress event, total committed:98016377, progress insts committed: 20015811, IPC: 01.99958
18593644891203: Event_282: system.switch_cpus0 progress event, total committed:115108255, progress insts committed: 17091878, IPC: 01.70748
18593644891203: Event_283: system.switch_cpus1 progress event, total committed:115104622, progress insts committed: 17084280, IPC: 01.70672
18593644891203: Event_284: system.switch_cpus2 progress event, total committed:115102452, progress insts committed: 17086090, IPC: 001.7069
18593644891203: Event_285: system.switch_cpus3 progress event, total committed:115099330, progress insts committed: 17082982, IPC: 01.70659
18596978224536: Event_285: system.switch_cpus3 progress event, total committed:135081397, progress insts committed: 19982067, IPC: 01.99621
18596978224536: Event_284: system.switch_cpus2 progress event, total committed:135088158, progress insts committed: 19985706, IPC: 01.99657
18596978224536: Event_283: system.switch_cpus1 progress event, total committed:135085764, progress insts committed: 19981142, IPC: 01.99612
18596978224536: Event_282: system.switch_cpus0 progress event, total committed:135085736, progress insts committed: 19977481, IPC: 01.99575
18600311557869: Event_282: system.switch_cpus0 progress event, total committed:154927378, progress insts committed: 19841642, IPC: 01.98218
18600311557869: Event_283: system.switch_cpus1 progress event, total committed:154930556, progress insts committed: 19844792, IPC: 01.98249
18600311557869: Event_284: system.switch_cpus2 progress event, total committed:154930641, progress insts committed: 19842483, IPC: 01.98226
18600311557869: Event_285: system.switch_cpus3 progress event, total committed:154930719, progress insts committed: 19849322, IPC: 01.98295
18603644891202: Event_285: system.switch_cpus3 progress event, total committed:174909259, progress insts committed: 19978540, IPC: 01.99586
18603644891202: Event_284: system.switch_cpus2 progress event, total committed:174903788, progress insts committed: 19973147, IPC: 01.99532
18603644891202: Event_283: system.switch_cpus1 progress event, total committed:174895529, progress insts committed: 19964973, IPC: 001.9945
18603644891202: Event_282: system.switch_cpus0 progress event, total committed:174895376, progress insts committed: 19967998, IPC: 001.9948
18606978224535: Event_282: system.switch_cpus0 progress event, total committed:194843462, progress insts committed: 19948086, IPC: 01.99281
18606978224535: Event_283: system.switch_cpus1 progress event, total committed:194843471, progress insts committed: 19947942, IPC: 001.9928
18606978224535: Event_284: system.switch_cpus2 progress event, total committed:194852919, progress insts committed: 19949131, IPC: 01.99292
18606978224535: Event_285: system.switch_cpus3 progress event, total committed:194852930, progress insts committed: 19943671, IPC: 01.99237
18610311557868: Event_285: system.switch_cpus3 progress event, total committed:214716208, progress insts committed: 19863278, IPC: 01.98434
18610311557868: Event_284: system.switch_cpus2 progress event, total committed:214716112, progress insts committed: 19863193, IPC: 01.98433
18610311557868: Event_283: system.switch_cpus1 progress event, total committed:214711109, progress insts committed: 19867638, IPC: 01.98478
18610311557868: Event_282: system.switch_cpus0 progress event, total committed:214711037, progress insts committed: 19867575, IPC: 01.98477
18613644891201: Event_282: system.switch_cpus0 progress event, total committed:234699567, progress insts committed: 19988530, IPC: 01.99685
18613644891201: Event_283: system.switch_cpus1 progress event, total committed:234699759, progress insts committed: 19988650, IPC: 01.99687
18613644891201: Event_284: system.switch_cpus2 progress event, total committed:234705919, progress insts committed: 19989807, IPC: 01.99698
18613644891201: Event_285: system.switch_cpus3 progress event, total committed:234705927, progress insts committed: 19989719, IPC: 01.99697
18616978224534: Event_285: system.switch_cpus3 progress event, total committed:254773782, progress insts committed: 20067855, IPC: 02.00478
18616978224534: Event_284: system.switch_cpus2 progress event, total committed:254773991, progress insts committed: 20068072, IPC: 002.0048
18616978224534: Event_283: system.switch_cpus1 progress event, total committed:254766285, progress insts committed: 20066526, IPC: 02.00465
18616978224534: Event_282: system.switch_cpus0 progress event, total committed:254765616, progress insts committed: 20066049, IPC: 002.0046
18620311557867: Event_282: system.switch_cpus0 progress event, total committed:274684272, progress insts committed: 19918656, IPC: 01.98987
18620311557867: Event_283: system.switch_cpus1 progress event, total committed:274687815, progress insts committed: 19921530, IPC: 01.99016
18620311557867: Event_284: system.switch_cpus2 progress event, total committed:274693091, progress insts committed: 19919100, IPC: 01.98992
18620311557867: Event_285: system.switch_cpus3 progress event, total committed:274693884, progress insts committed: 19920102, IPC: 01.99002
18623644891200: Event_285: system.switch_cpus3 progress event, total committed:294678113, progress insts committed: 19984229, IPC: 01.99642
18623644891200: Event_284: system.switch_cpus2 progress event, total committed:294673568, progress insts committed: 19980477, IPC: 01.99605
18623644891200: Event_283: system.switch_cpus1 progress event, total committed:294665754, progress insts committed: 19977939, IPC: 001.9958
18623644891200: Event_282: system.switch_cpus0 progress event, total committed:294667829, progress insts committed: 19983557, IPC: 01.99636
18626978224533: Event_282: system.switch_cpus0 progress event, total committed:314669019, progress insts committed: 20001190, IPC: 01.99812
18626978224533: Event_283: system.switch_cpus1 progress event, total committed:314677027, progress insts committed: 20011273, IPC: 01.99913
18626978224533: Event_284: system.switch_cpus2 progress event, total committed:314687517, progress insts committed: 20013949, IPC: 01.99939
18626978224533: Event_285: system.switch_cpus3 progress event, total committed:314683309, progress insts committed: 20005196, IPC: 01.99852
18630311557866: Event_285: system.switch_cpus3 progress event, total committed:334572957, progress insts committed: 19889648, IPC: 01.98698
18630311557866: Event_284: system.switch_cpus2 progress event, total committed:334577041, progress insts committed: 19889524, IPC: 01.98696
18630311557866: Event_283: system.switch_cpus1 progress event, total committed:334564344, progress insts committed: 19887317, IPC: 01.98674
18630311557866: Event_282: system.switch_cpus0 progress event, total committed:334563176, progress insts committed: 19894157, IPC: 01.98743
18633644891199: Event_282: system.switch_cpus0 progress event, total committed:354532846, progress insts committed: 19969670, IPC: 01.99497
18633644891199: Event_283: system.switch_cpus1 progress event, total committed:354538629, progress insts committed: 19974285, IPC: 01.99543
18633644891199: Event_284: system.switch_cpus2 progress event, total committed:354538615, progress insts committed: 19961574, IPC: 01.99416
18633644891199: Event_285: system.switch_cpus3 progress event, total committed:354537809, progress insts committed: 19964852, IPC: 01.99449
18636978224532: Event_285: system.switch_cpus3 progress event, total committed:374556276, progress insts committed: 20018467, IPC: 01.99984
18636978224532: Event_284: system.switch_cpus2 progress event, total committed:374552621, progress insts committed: 20014006, IPC: 001.9994
18636978224532: Event_283: system.switch_cpus1 progress event, total committed:374561554, progress insts committed: 20022925, IPC: 02.00029
18636978224532: Event_282: system.switch_cpus0 progress event, total committed:374556434, progress insts committed: 20023588, IPC: 02.00036
18640311557865: Event_282: system.switch_cpus0 progress event, total committed:394402671, progress insts committed: 19846237, IPC: 01.98264
18640311557865: Event_283: system.switch_cpus1 progress event, total committed:394403334, progress insts committed: 19841780, IPC: 01.98219
18640311557865: Event_284: system.switch_cpus2 progress event, total committed:394405066, progress insts committed: 19852445, IPC: 01.98326
18640311557865: Event_285: system.switch_cpus3 progress event, total committed:394403188, progress insts committed: 19846912, IPC: 01.98271
18643644891198: Event_285: system.switch_cpus3 progress event, total committed:414310848, progress insts committed: 19907660, IPC: 01.98878
18643644891198: Event_284: system.switch_cpus2 progress event, total committed:414308153, progress insts committed: 19903087, IPC: 01.98832
18643644891198: Event_283: system.switch_cpus1 progress event, total committed:414319693, progress insts committed: 19916359, IPC: 01.98964
18643644891198: Event_282: system.switch_cpus0 progress event, total committed:414313789, progress insts committed: 19911118, IPC: 01.98912
18646978224531: Event_282: system.switch_cpus0 progress event, total committed:434297245, progress insts committed: 19983456, IPC: 01.99635
18646978224531: Event_283: system.switch_cpus1 progress event, total committed:434308973, progress insts committed: 19989280, IPC: 01.99693
18646978224531: Event_284: system.switch_cpus2 progress event, total committed:434294325, progress insts committed: 19986172, IPC: 01.99662
18646978224531: Event_285: system.switch_cpus3 progress event, total committed:434295467, progress insts committed: 19984619, IPC: 01.99646
18650311557864: Event_285: system.switch_cpus3 progress event, total committed:454284067, progress insts committed: 19988600, IPC: 01.99686
18650311557864: Event_284: system.switch_cpus2 progress event, total committed:454280789, progress insts committed: 19986464, IPC: 01.99665
18650311557864: Event_283: system.switch_cpus1 progress event, total committed:454284995, progress insts committed: 19976022, IPC: 001.9956
18650311557864: Event_282: system.switch_cpus0 progress event, total committed:454273943, progress insts committed: 19976698, IPC: 01.99567
Exiting @ tick 18651237554871 because a thread reached the max instruction count
