
---------- Begin Simulation Statistics ----------
final_tick                               18651237554871                       # Number of ticks from beginning of simulation (restored from checkpoints and never reset)
host_inst_rate                                 100745                       # Simulator instruction rate (inst/s)
host_mem_usage                               17137436                       # Number of bytes of host memory used
host_op_rate                                   185309                       # Simulator op (including micro ops) rate (op/s)
host_seconds                                  9925.92                       # Real time elapsed on the host
host_tick_rate                                7817174                       # Simulator tick rate (ticks/s)
sim_freq                                 1000000000000                       # Frequency of simulated ticks
sim_insts                                   999982451                       # Number of instructions simulated
sim_ops                                    1839362323                       # Number of ops (including micro ops) simulated
sim_seconds                                  0.077593                       # Number of seconds simulated
sim_ticks                                 77592663666                       # Number of ticks simulated
system.cpu0.committedInsts                         13                       # Number of instructions committed
system.cpu0.committedOps                           25                       # Number of ops (including micro ops) committed
system.cpu0.idle_fraction                           0                       # Percentage of idle cycles
system.cpu0.l2bus.snoop_filter.hit_multi_requests          266                       # Number of requests hitting in the snoop filter with multiple (>1) holders of the requested data.
system.cpu0.l2bus.snoop_filter.hit_multi_snoops            4                       # Number of snoops hitting in the snoop filter with multiple (>1) holders of the requested data.
system.cpu0.l2bus.snoop_filter.hit_single_requests       832981                       # Number of requests hitting in the snoop filter with a single holder of the requested data.
system.cpu0.l2bus.snoop_filter.hit_single_snoops         2948                       # Number of snoops hitting in the snoop filter with a single holder of the requested data.
system.cpu0.l2bus.snoop_filter.tot_requests      1665490                       # Total number of requests made to the snoop filter.
system.cpu0.l2bus.snoop_filter.tot_snoops         2952                       # Total number of snoops made to the snoop filter.
system.cpu0.mmucache.mmubus.snoop_filter.hit_multi_requests            0                       # Number of requests hitting in the snoop filter with multiple (>1) holders of the requested data.
system.cpu0.mmucache.mmubus.snoop_filter.hit_multi_snoops            0                       # Number of snoops hitting in the snoop filter with multiple (>1) holders of the requested data.
system.cpu0.mmucache.mmubus.snoop_filter.hit_single_requests            0                       # Number of requests hitting in the snoop filter with a single holder of the requested data.
system.cpu0.mmucache.mmubus.snoop_filter.hit_single_snoops            0                       # Number of snoops hitting in the snoop filter with a single holder of the requested data.
system.cpu0.mmucache.mmubus.snoop_filter.tot_requests            0                       # Total number of requests made to the snoop filter.
system.cpu0.mmucache.mmubus.snoop_filter.tot_snoops            0                       # Total number of snoops made to the snoop filter.
system.cpu0.not_idle_fraction                       1                       # Percentage of non-idle cycles
system.cpu0.numCycles                              31                       # number of cpu cycles simulated
system.cpu0.numWorkItemsCompleted                   0                       # number of work items this cpu completed
system.cpu0.numWorkItemsStarted                     0                       # number of work items this cpu started
system.cpu0.num_busy_cycles                        31                       # Number of busy cycles
system.cpu0.num_cc_register_reads                  22                       # number of times the CC registers were read
system.cpu0.num_cc_register_writes                 12                       # number of times the CC registers were written
system.cpu0.num_conditional_control_insts            0                       # number of instructions that are conditional controls
system.cpu0.num_fp_alu_accesses                     0                       # Number of float alu accesses
system.cpu0.num_fp_insts                            0                       # number of float instructions
system.cpu0.num_fp_register_reads                   0                       # number of times the floating registers were read
system.cpu0.num_fp_register_writes                  0                       # number of times the floating registers were written
system.cpu0.num_func_calls                          0                       # number of times a function call or return occured
system.cpu0.num_idle_cycles                         0                       # Number of idle cycles
system.cpu0.num_int_alu_accesses                   25                       # Number of integer alu accesses
system.cpu0.num_int_insts                          25                       # number of integer instructions
system.cpu0.num_int_register_reads                 51                       # number of times the integer registers were read
system.cpu0.num_int_register_writes                25                       # number of times the integer registers were written
system.cpu0.num_load_insts                          4                       # Number of load instructions
system.cpu0.num_mem_refs                            4                       # number of memory refs
system.cpu0.num_store_insts                         0                       # Number of store instructions
system.cpu0.num_vec_alu_accesses                    0                       # Number of vector alu accesses
system.cpu0.num_vec_insts                           0                       # number of vector instructions
system.cpu0.num_vec_register_reads                  0                       # number of times the vector registers were read
system.cpu0.num_vec_register_writes                 0                       # number of times the vector registers were written
system.cpu0.op_class::No_OpClass                    0      0.00%      0.00% # Class of executed instruction
system.cpu0.op_class::IntAlu                       21     84.00%     84.00% # Class of executed instruction
system.cpu0.op_class::IntMult                       0      0.00%     84.00% # Class of executed instruction
system.cpu0.op_class::IntDiv                        0      0.00%     84.00% # Class of executed instruction
system.cpu0.op_class::FloatAdd                      0      0.00%     84.00% # Class of executed instruction
system.cpu0.op_class::FloatCmp                      0      0.00%     84.00% # Class of executed instruction
system.cpu0.op_class::FloatCvt                      0      0.00%     84.00% # Class of executed instruction
system.cpu0.op_class::FloatMult                     0      0.00%     84.00% # Class of executed instruction
system.cpu0.op_class::FloatMultAcc                  0      0.00%     84.00% # Class of executed instruction
system.cpu0.op_class::FloatDiv                      0      0.00%     84.00% # Class of executed instruction
system.cpu0.op_class::FloatMisc                     0      0.00%     84.00% # Class of executed instruction
system.cpu0.op_class::FloatSqrt                     0      0.00%     84.00% # Class of executed instruction
system.cpu0.op_class::SimdAdd                       0      0.00%     84.00% # Class of executed instruction
system.cpu0.op_class::SimdAddAcc                    0      0.00%     84.00% # Class of executed instruction
system.cpu0.op_class::SimdAlu                       0      0.00%     84.00% # Class of executed instruction
system.cpu0.op_class::SimdCmp                       0      0.00%     84.00% # Class of executed instruction
system.cpu0.op_class::SimdCvt                       0      0.00%     84.00% # Class of executed instruction
system.cpu0.op_class::SimdMisc                      0      0.00%     84.00% # Class of executed instruction
system.cpu0.op_class::SimdMult                      0      0.00%     84.00% # Class of executed instruction
system.cpu0.op_class::SimdMultAcc                   0      0.00%     84.00% # Class of executed instruction
system.cpu0.op_class::SimdShift                     0      0.00%     84.00% # Class of executed instruction
system.cpu0.op_class::SimdShiftAcc                  0      0.00%     84.00% # Class of executed instruction
system.cpu0.op_class::SimdDiv                       0      0.00%     84.00% # Class of executed instruction
system.cpu0.op_class::SimdSqrt                      0      0.00%     84.00% # Class of executed instruction
system.cpu0.op_class::SimdFloatAdd                  0      0.00%     84.00% # Class of executed instruction
system.cpu0.op_class::SimdFloatAlu                  0      0.00%     84.00% # Class of executed instruction
system.cpu0.op_class::SimdFloatCmp                  0      0.00%     84.00% # Class of executed instruction
system.cpu0.op_class::SimdFloatCvt                  0      0.00%     84.00% # Class of executed instruction
system.cpu0.op_class::SimdFloatDiv                  0      0.00%     84.00% # Class of executed instruction
system.cpu0.op_class::SimdFloatMisc                 0      0.00%     84.00% # Class of executed instruction
system.cpu0.op_class::SimdFloatMult                 0      0.00%     84.00% # Class of executed instruction
system.cpu0.op_class::SimdFloatMultAcc              0      0.00%     84.00% # Class of executed instruction
system.cpu0.op_class::SimdFloatSqrt                 0      0.00%     84.00% # Class of executed instruction
system.cpu0.op_class::SimdReduceAdd                 0      0.00%     84.00% # Class of executed instruction
system.cpu0.op_class::SimdReduceAlu                 0      0.00%     84.00% # Class of executed instruction
system.cpu0.op_class::SimdReduceCmp                 0      0.00%     84.00% # Class of executed instruction
system.cpu0.op_class::SimdFloatReduceAdd            0      0.00%     84.00% # Class of executed instruction
system.cpu0.op_class::SimdFloatReduceCmp            0      0.00%     84.00% # Class of executed instruction
system.cpu0.op_class::SimdAes                       0      0.00%     84.00% # Class of executed instruction
system.cpu0.op_class::SimdAesMix                    0      0.00%     84.00% # Class of executed instruction
system.cpu0.op_class::SimdSha1Hash                  0      0.00%     84.00% # Class of executed instruction
system.cpu0.op_class::SimdSha1Hash2                 0      0.00%     84.00% # Class of executed instruction
system.cpu0.op_class::SimdSha256Hash                0      0.00%     84.00% # Class of executed instruction
system.cpu0.op_class::SimdSha256Hash2               0      0.00%     84.00% # Class of executed instruction
system.cpu0.op_class::SimdShaSigma2                 0      0.00%     84.00% # Class of executed instruction
system.cpu0.op_class::SimdShaSigma3                 0      0.00%     84.00% # Class of executed instruction
system.cpu0.op_class::SimdPredAlu                   0      0.00%     84.00% # Class of executed instruction
system.cpu0.op_class::MemRead                       4     16.00%    100.00% # Class of executed instruction
system.cpu0.op_class::MemWrite                      0      0.00%    100.00% # Class of executed instruction
system.cpu0.op_class::FloatMemRead                  0      0.00%    100.00% # Class of executed instruction
system.cpu0.op_class::FloatMemWrite                 0      0.00%    100.00% # Class of executed instruction
system.cpu0.op_class::IprAccess                     0      0.00%    100.00% # Class of executed instruction
system.cpu0.op_class::InstPrefetch                  0      0.00%    100.00% # Class of executed instruction
system.cpu0.op_class::total                        25                       # Class of executed instruction
system.cpu0.workload.numSyscalls                    0                       # Number of system calls
system.cpu1.committedInsts                         13                       # Number of instructions committed
system.cpu1.committedOps                           25                       # Number of ops (including micro ops) committed
system.cpu1.idle_fraction                           0                       # Percentage of idle cycles
system.cpu1.l2bus.snoop_filter.hit_multi_requests          283                       # Number of requests hitting in the snoop filter with multiple (>1) holders of the requested data.
system.cpu1.l2bus.snoop_filter.hit_multi_snoops            0                       # Number of snoops hitting in the snoop filter with multiple (>1) holders of the requested data.
system.cpu1.l2bus.snoop_filter.hit_single_requests       833061                       # Number of requests hitting in the snoop filter with a single holder of the requested data.
system.cpu1.l2bus.snoop_filter.hit_single_snoops         2517                       # Number of snoops hitting in the snoop filter with a single holder of the requested data.
system.cpu1.l2bus.snoop_filter.tot_requests      1665633                       # Total number of requests made to the snoop filter.
system.cpu1.l2bus.snoop_filter.tot_snoops         2517                       # Total number of snoops made to the snoop filter.
system.cpu1.mmucache.mmubus.snoop_filter.hit_multi_requests            0                       # Number of requests hitting in the snoop filter with multiple (>1) holders of the requested data.
system.cpu1.mmucache.mmubus.snoop_filter.hit_multi_snoops            0                       # Number of snoops hitting in the snoop filter with multiple (>1) holders of the requested data.
system.cpu1.mmucache.mmubus.snoop_filter.hit_single_requests            0                       # Number of requests hitting in the snoop filter with a single holder of the requested data.
system.cpu1.mmucache.mmubus.snoop_filter.hit_single_snoops            0                       # Number of snoops hitting in the snoop filter with a single holder of the requested data.
system.cpu1.mmucache.mmubus.snoop_filter.tot_requests            0                       # Total number of requests made to the snoop filter.
system.cpu1.mmucache.mmubus.snoop_filter.tot_snoops            0                       # Total number of snoops made to the snoop filter.
system.cpu1.not_idle_fraction                       1                       # Percentage of non-idle cycles
system.cpu1.numCycles                              31                       # number of cpu cycles simulated
system.cpu1.numWorkItemsCompleted                   0                       # number of work items this cpu completed
system.cpu1.numWorkItemsStarted                     0                       # number of work items this cpu started
system.cpu1.num_busy_cycles                        31                       # Number of busy cycles
system.cpu1.num_cc_register_reads                  22                       # number of times the CC registers were read
system.cpu1.num_cc_register_writes                 12                       # number of times the CC registers were written
system.cpu1.num_conditional_control_insts            0                       # number of instructions that are conditional controls
system.cpu1.num_fp_alu_accesses                     0                       # Number of float alu accesses
system.cpu1.num_fp_insts                            0                       # number of float instructions
system.cpu1.num_fp_register_reads                   0                       # number of times the floating registers were read
system.cpu1.num_fp_register_writes                  0                       # number of times the floating registers were written
system.cpu1.num_func_calls                          0                       # number of times a function call or return occured
system.cpu1.num_idle_cycles                         0                       # Number of idle cycles
system.cpu1.num_int_alu_accesses                   25                       # Number of integer alu accesses
system.cpu1.num_int_insts                          25                       # number of integer instructions
system.cpu1.num_int_register_reads                 51                       # number of times the integer registers were read
system.cpu1.num_int_register_writes                25                       # number of times the integer registers were written
system.cpu1.num_load_insts                          4                       # Number of load instructions
system.cpu1.num_mem_refs                            4                       # number of memory refs
system.cpu1.num_store_insts                         0                       # Number of store instructions
system.cpu1.num_vec_alu_accesses                    0                       # Number of vector alu accesses
system.cpu1.num_vec_insts                           0                       # number of vector instructions
system.cpu1.num_vec_register_reads                  0                       # number of times the vector registers were read
system.cpu1.num_vec_register_writes                 0                       # number of times the vector registers were written
system.cpu1.op_class::No_OpClass                    0      0.00%      0.00% # Class of executed instruction
system.cpu1.op_class::IntAlu                       21     84.00%     84.00% # Class of executed instruction
system.cpu1.op_class::IntMult                       0      0.00%     84.00% # Class of executed instruction
system.cpu1.op_class::IntDiv                        0      0.00%     84.00% # Class of executed instruction
system.cpu1.op_class::FloatAdd                      0      0.00%     84.00% # Class of executed instruction
system.cpu1.op_class::FloatCmp                      0      0.00%     84.00% # Class of executed instruction
system.cpu1.op_class::FloatCvt                      0      0.00%     84.00% # Class of executed instruction
system.cpu1.op_class::FloatMult                     0      0.00%     84.00% # Class of executed instruction
system.cpu1.op_class::FloatMultAcc                  0      0.00%     84.00% # Class of executed instruction
system.cpu1.op_class::FloatDiv                      0      0.00%     84.00% # Class of executed instruction
system.cpu1.op_class::FloatMisc                     0      0.00%     84.00% # Class of executed instruction
system.cpu1.op_class::FloatSqrt                     0      0.00%     84.00% # Class of executed instruction
system.cpu1.op_class::SimdAdd                       0      0.00%     84.00% # Class of executed instruction
system.cpu1.op_class::SimdAddAcc                    0      0.00%     84.00% # Class of executed instruction
system.cpu1.op_class::SimdAlu                       0      0.00%     84.00% # Class of executed instruction
system.cpu1.op_class::SimdCmp                       0      0.00%     84.00% # Class of executed instruction
system.cpu1.op_class::SimdCvt                       0      0.00%     84.00% # Class of executed instruction
system.cpu1.op_class::SimdMisc                      0      0.00%     84.00% # Class of executed instruction
system.cpu1.op_class::SimdMult                      0      0.00%     84.00% # Class of executed instruction
system.cpu1.op_class::SimdMultAcc                   0      0.00%     84.00% # Class of executed instruction
system.cpu1.op_class::SimdShift                     0      0.00%     84.00% # Class of executed instruction
system.cpu1.op_class::SimdShiftAcc                  0      0.00%     84.00% # Class of executed instruction
system.cpu1.op_class::SimdDiv                       0      0.00%     84.00% # Class of executed instruction
system.cpu1.op_class::SimdSqrt                      0      0.00%     84.00% # Class of executed instruction
system.cpu1.op_class::SimdFloatAdd                  0      0.00%     84.00% # Class of executed instruction
system.cpu1.op_class::SimdFloatAlu                  0      0.00%     84.00% # Class of executed instruction
system.cpu1.op_class::SimdFloatCmp                  0      0.00%     84.00% # Class of executed instruction
system.cpu1.op_class::SimdFloatCvt                  0      0.00%     84.00% # Class of executed instruction
system.cpu1.op_class::SimdFloatDiv                  0      0.00%     84.00% # Class of executed instruction
system.cpu1.op_class::SimdFloatMisc                 0      0.00%     84.00% # Class of executed instruction
system.cpu1.op_class::SimdFloatMult                 0      0.00%     84.00% # Class of executed instruction
system.cpu1.op_class::SimdFloatMultAcc              0      0.00%     84.00% # Class of executed instruction
system.cpu1.op_class::SimdFloatSqrt                 0      0.00%     84.00% # Class of executed instruction
system.cpu1.op_class::SimdReduceAdd                 0      0.00%     84.00% # Class of executed instruction
system.cpu1.op_class::SimdReduceAlu                 0      0.00%     84.00% # Class of executed instruction
system.cpu1.op_class::SimdReduceCmp                 0      0.00%     84.00% # Class of executed instruction
system.cpu1.op_class::SimdFloatReduceAdd            0      0.00%     84.00% # Class of executed instruction
system.cpu1.op_class::SimdFloatReduceCmp            0      0.00%     84.00% # Class of executed instruction
system.cpu1.op_class::SimdAes                       0      0.00%     84.00% # Class of executed instruction
system.cpu1.op_class::SimdAesMix                    0      0.00%     84.00% # Class of executed instruction
system.cpu1.op_class::SimdSha1Hash                  0      0.00%     84.00% # Class of executed instruction
system.cpu1.op_class::SimdSha1Hash2                 0      0.00%     84.00% # Class of executed instruction
system.cpu1.op_class::SimdSha256Hash                0      0.00%     84.00% # Class of executed instruction
system.cpu1.op_class::SimdSha256Hash2               0      0.00%     84.00% # Class of executed instruction
system.cpu1.op_class::SimdShaSigma2                 0      0.00%     84.00% # Class of executed instruction
system.cpu1.op_class::SimdShaSigma3                 0      0.00%     84.00% # Class of executed instruction
system.cpu1.op_class::SimdPredAlu                   0      0.00%     84.00% # Class of executed instruction
system.cpu1.op_class::MemRead                       4     16.00%    100.00% # Class of executed instruction
system.cpu1.op_class::MemWrite                      0      0.00%    100.00% # Class of executed instruction
system.cpu1.op_class::FloatMemRead                  0      0.00%    100.00% # Class of executed instruction
system.cpu1.op_class::FloatMemWrite                 0      0.00%    100.00% # Class of executed instruction
system.cpu1.op_class::IprAccess                     0      0.00%    100.00% # Class of executed instruction
system.cpu1.op_class::InstPrefetch                  0      0.00%    100.00% # Class of executed instruction
system.cpu1.op_class::total                        25                       # Class of executed instruction
system.cpu1.workload.numSyscalls                    0                       # Number of system calls
system.cpu2.committedInsts                         13                       # Number of instructions committed
system.cpu2.committedOps                           25                       # Number of ops (including micro ops) committed
system.cpu2.idle_fraction                           0                       # Percentage of idle cycles
system.cpu2.l2bus.snoop_filter.hit_multi_requests          269                       # Number of requests hitting in the snoop filter with multiple (>1) holders of the requested data.
system.cpu2.l2bus.snoop_filter.hit_multi_snoops            2                       # Number of snoops hitting in the snoop filter with multiple (>1) holders of the requested data.
system.cpu2.l2bus.snoop_filter.hit_single_requests       832840                       # Number of requests hitting in the snoop filter with a single holder of the requested data.
system.cpu2.l2bus.snoop_filter.hit_single_snoops         2644                       # Number of snoops hitting in the snoop filter with a single holder of the requested data.
system.cpu2.l2bus.snoop_filter.tot_requests      1665170                       # Total number of requests made to the snoop filter.
system.cpu2.l2bus.snoop_filter.tot_snoops         2646                       # Total number of snoops made to the snoop filter.
system.cpu2.mmucache.mmubus.snoop_filter.hit_multi_requests            0                       # Number of requests hitting in the snoop filter with multiple (>1) holders of the requested data.
system.cpu2.mmucache.mmubus.snoop_filter.hit_multi_snoops            0                       # Number of snoops hitting in the snoop filter with multiple (>1) holders of the requested data.
system.cpu2.mmucache.mmubus.snoop_filter.hit_single_requests            0                       # Number of requests hitting in the snoop filter with a single holder of the requested data.
system.cpu2.mmucache.mmubus.snoop_filter.hit_single_snoops            0                       # Number of snoops hitting in the snoop filter with a single holder of the requested data.
system.cpu2.mmucache.mmubus.snoop_filter.tot_requests            0                       # Total number of requests made to the snoop filter.
system.cpu2.mmucache.mmubus.snoop_filter.tot_snoops            0                       # Total number of snoops made to the snoop filter.
system.cpu2.not_idle_fraction                       1                       # Percentage of non-idle cycles
system.cpu2.numCycles                              31                       # number of cpu cycles simulated
system.cpu2.numWorkItemsCompleted                   0                       # number of work items this cpu completed
system.cpu2.numWorkItemsStarted                     0                       # number of work items this cpu started
system.cpu2.num_busy_cycles                        31                       # Number of busy cycles
system.cpu2.num_cc_register_reads                  22                       # number of times the CC registers were read
system.cpu2.num_cc_register_writes                 12                       # number of times the CC registers were written
system.cpu2.num_conditional_control_insts            0                       # number of instructions that are conditional controls
system.cpu2.num_fp_alu_accesses                     0                       # Number of float alu accesses
system.cpu2.num_fp_insts                            0                       # number of float instructions
system.cpu2.num_fp_register_reads                   0                       # number of times the floating registers were read
system.cpu2.num_fp_register_writes                  0                       # number of times the floating registers were written
system.cpu2.num_func_calls                          0                       # number of times a function call or return occured
system.cpu2.num_idle_cycles                         0                       # Number of idle cycles
system.cpu2.num_int_alu_accesses                   25                       # Number of integer alu accesses
system.cpu2.num_int_insts                          25                       # number of integer instructions
system.cpu2.num_int_register_reads                 51                       # number of times the integer registers were read
system.cpu2.num_int_register_writes                25                       # number of times the integer registers were written
system.cpu2.num_load_insts                          4                       # Number of load instructions
system.cpu2.num_mem_refs                            4                       # number of memory refs
system.cpu2.num_store_insts                         0                       # Number of store instructions
system.cpu2.num_vec_alu_accesses                    0                       # Number of vector alu accesses
system.cpu2.num_vec_insts                           0                       # number of vector instructions
system.cpu2.num_vec_register_reads                  0                       # number of times the vector registers were read
system.cpu2.num_vec_register_writes                 0                       # number of times the vector registers were written
system.cpu2.op_class::No_OpClass                    0      0.00%      0.00% # Class of executed instruction
system.cpu2.op_class::IntAlu                       21     84.00%     84.00% # Class of executed instruction
system.cpu2.op_class::IntMult                       0      0.00%     84.00% # Class of executed instruction
system.cpu2.op_class::IntDiv                        0      0.00%     84.00% # Class of executed instruction
system.cpu2.op_class::FloatAdd                      0      0.00%     84.00% # Class of executed instruction
system.cpu2.op_class::FloatCmp                      0      0.00%     84.00% # Class of executed instruction
system.cpu2.op_class::FloatCvt                      0      0.00%     84.00% # Class of executed instruction
system.cpu2.op_class::FloatMult                     0      0.00%     84.00% # Class of executed instruction
system.cpu2.op_class::FloatMultAcc                  0      0.00%     84.00% # Class of executed instruction
system.cpu2.op_class::FloatDiv                      0      0.00%     84.00% # Class of executed instruction
system.cpu2.op_class::FloatMisc                     0      0.00%     84.00% # Class of executed instruction
system.cpu2.op_class::FloatSqrt                     0      0.00%     84.00% # Class of executed instruction
system.cpu2.op_class::SimdAdd                       0      0.00%     84.00% # Class of executed instruction
system.cpu2.op_class::SimdAddAcc                    0      0.00%     84.00% # Class of executed instruction
system.cpu2.op_class::SimdAlu                       0      0.00%     84.00% # Class of executed instruction
system.cpu2.op_class::SimdCmp                       0      0.00%     84.00% # Class of executed instruction
system.cpu2.op_class::SimdCvt                       0      0.00%     84.00% # Class of executed instruction
system.cpu2.op_class::SimdMisc                      0      0.00%     84.00% # Class of executed instruction
system.cpu2.op_class::SimdMult                      0      0.00%     84.00% # Class of executed instruction
system.cpu2.op_class::SimdMultAcc                   0      0.00%     84.00% # Class of executed instruction
system.cpu2.op_class::SimdShift                     0      0.00%     84.00% # Class of executed instruction
system.cpu2.op_class::SimdShiftAcc                  0      0.00%     84.00% # Class of executed instruction
system.cpu2.op_class::SimdDiv                       0      0.00%     84.00% # Class of executed instruction
system.cpu2.op_class::SimdSqrt                      0      0.00%     84.00% # Class of executed instruction
system.cpu2.op_class::SimdFloatAdd                  0      0.00%     84.00% # Class of executed instruction
system.cpu2.op_class::SimdFloatAlu                  0      0.00%     84.00% # Class of executed instruction
system.cpu2.op_class::SimdFloatCmp                  0      0.00%     84.00% # Class of executed instruction
system.cpu2.op_class::SimdFloatCvt                  0      0.00%     84.00% # Class of executed instruction
system.cpu2.op_class::SimdFloatDiv                  0      0.00%     84.00% # Class of executed instruction
system.cpu2.op_class::SimdFloatMisc                 0      0.00%     84.00% # Class of executed instruction
system.cpu2.op_class::SimdFloatMult                 0      0.00%     84.00% # Class of executed instruction
system.cpu2.op_class::SimdFloatMultAcc              0      0.00%     84.00% # Class of executed instruction
system.cpu2.op_class::SimdFloatSqrt                 0      0.00%     84.00% # Class of executed instruction
system.cpu2.op_class::SimdReduceAdd                 0      0.00%     84.00% # Class of executed instruction
system.cpu2.op_class::SimdReduceAlu                 0      0.00%     84.00% # Class of executed instruction
system.cpu2.op_class::SimdReduceCmp                 0      0.00%     84.00% # Class of executed instruction
system.cpu2.op_class::SimdFloatReduceAdd            0      0.00%     84.00% # Class of executed instruction
system.cpu2.op_class::SimdFloatReduceCmp            0      0.00%     84.00% # Class of executed instruction
system.cpu2.op_class::SimdAes                       0      0.00%     84.00% # Class of executed instruction
system.cpu2.op_class::SimdAesMix                    0      0.00%     84.00% # Class of executed instruction
system.cpu2.op_class::SimdSha1Hash                  0      0.00%     84.00% # Class of executed instruction
system.cpu2.op_class::SimdSha1Hash2                 0      0.00%     84.00% # Class of executed instruction
system.cpu2.op_class::SimdSha256Hash                0      0.00%     84.00% # Class of executed instruction
system.cpu2.op_class::SimdSha256Hash2               0      0.00%     84.00% # Class of executed instruction
system.cpu2.op_class::SimdShaSigma2                 0      0.00%     84.00% # Class of executed instruction
system.cpu2.op_class::SimdShaSigma3                 0      0.00%     84.00% # Class of executed instruction
system.cpu2.op_class::SimdPredAlu                   0      0.00%     84.00% # Class of executed instruction
system.cpu2.op_class::MemRead                       4     16.00%    100.00% # Class of executed instruction
system.cpu2.op_class::MemWrite                      0      0.00%    100.00% # Class of executed instruction
system.cpu2.op_class::FloatMemRead                  0      0.00%    100.00% # Class of executed instruction
system.cpu2.op_class::FloatMemWrite                 0      0.00%    100.00% # Class of executed instruction
system.cpu2.op_class::IprAccess                     0      0.00%    100.00% # Class of executed instruction
system.cpu2.op_class::InstPrefetch                  0      0.00%    100.00% # Class of executed instruction
system.cpu2.op_class::total                        25                       # Class of executed instruction
system.cpu2.workload.numSyscalls                    0                       # Number of system calls
system.cpu3.committedInsts                         13                       # Number of instructions committed
system.cpu3.committedOps                           25                       # Number of ops (including micro ops) committed
system.cpu3.idle_fraction                           0                       # Percentage of idle cycles
system.cpu3.l2bus.snoop_filter.hit_multi_requests          274                       # Number of requests hitting in the snoop filter with multiple (>1) holders of the requested data.
system.cpu3.l2bus.snoop_filter.hit_multi_snoops            0                       # Number of snoops hitting in the snoop filter with multiple (>1) holders of the requested data.
system.cpu3.l2bus.snoop_filter.hit_single_requests       833424                       # Number of requests hitting in the snoop filter with a single holder of the requested data.
system.cpu3.l2bus.snoop_filter.hit_single_snoops         2682                       # Number of snoops hitting in the snoop filter with a single holder of the requested data.
system.cpu3.l2bus.snoop_filter.tot_requests      1666373                       # Total number of requests made to the snoop filter.
system.cpu3.l2bus.snoop_filter.tot_snoops         2682                       # Total number of snoops made to the snoop filter.
system.cpu3.mmucache.mmubus.snoop_filter.hit_multi_requests            0                       # Number of requests hitting in the snoop filter with multiple (>1) holders of the requested data.
system.cpu3.mmucache.mmubus.snoop_filter.hit_multi_snoops            0                       # Number of snoops hitting in the snoop filter with multiple (>1) holders of the requested data.
system.cpu3.mmucache.mmubus.snoop_filter.hit_single_requests            0                       # Number of requests hitting in the snoop filter with a single holder of the requested data.
system.cpu3.mmucache.mmubus.snoop_filter.hit_single_snoops            0                       # Number of snoops hitting in the snoop filter with a single holder of the requested data.
system.cpu3.mmucache.mmubus.snoop_filter.tot_requests            0                       # Total number of requests made to the snoop filter.
system.cpu3.mmucache.mmubus.snoop_filter.tot_snoops            0                       # Total number of snoops made to the snoop filter.
system.cpu3.not_idle_fraction                       1                       # Percentage of non-idle cycles
system.cpu3.numCycles                              31                       # number of cpu cycles simulated
system.cpu3.numWorkItemsCompleted                   0                       # number of work items this cpu completed
system.cpu3.numWorkItemsStarted                     0                       # number of work items this cpu started
system.cpu3.num_busy_cycles                        31                       # Number of busy cycles
system.cpu3.num_cc_register_reads                  22                       # number of times the CC registers were read
system.cpu3.num_cc_register_writes                 12                       # number of times the CC registers were written
system.cpu3.num_conditional_control_insts            0                       # number of instructions that are conditional controls
system.cpu3.num_fp_alu_accesses                     0                       # Number of float alu accesses
system.cpu3.num_fp_insts                            0                       # number of float instructions
system.cpu3.num_fp_register_reads                   0                       # number of times the floating registers were read
system.cpu3.num_fp_register_writes                  0                       # number of times the floating registers were written
system.cpu3.num_func_calls                          0                       # number of times a function call or return occured
system.cpu3.num_idle_cycles                         0                       # Number of idle cycles
system.cpu3.num_int_alu_accesses                   25                       # Number of integer alu accesses
system.cpu3.num_int_insts                          25                       # number of integer instructions
system.cpu3.num_int_register_reads                 51                       # number of times the integer registers were read
system.cpu3.num_int_register_writes                25                       # number of times the integer registers were written
system.cpu3.num_load_insts                          4                       # Number of load instructions
system.cpu3.num_mem_refs                            4                       # number of memory refs
system.cpu3.num_store_insts                         0                       # Number of store instructions
system.cpu3.num_vec_alu_accesses                    0                       # Number of vector alu accesses
system.cpu3.num_vec_insts                           0                       # number of vector instructions
system.cpu3.num_vec_register_reads                  0                       # number of times the vector registers were read
system.cpu3.num_vec_register_writes                 0                       # number of times the vector registers were written
system.cpu3.op_class::No_OpClass                    0      0.00%      0.00% # Class of executed instruction
system.cpu3.op_class::IntAlu                       21     84.00%     84.00% # Class of executed instruction
system.cpu3.op_class::IntMult                       0      0.00%     84.00% # Class of executed instruction
system.cpu3.op_class::IntDiv                        0      0.00%     84.00% # Class of executed instruction
system.cpu3.op_class::FloatAdd                      0      0.00%     84.00% # Class of executed instruction
system.cpu3.op_class::FloatCmp                      0      0.00%     84.00% # Class of executed instruction
system.cpu3.op_class::FloatCvt                      0      0.00%     84.00% # Class of executed instruction
system.cpu3.op_class::FloatMult                     0      0.00%     84.00% # Class of executed instruction
system.cpu3.op_class::FloatMultAcc                  0      0.00%     84.00% # Class of executed instruction
system.cpu3.op_class::FloatDiv                      0      0.00%     84.00% # Class of executed instruction
system.cpu3.op_class::FloatMisc                     0      0.00%     84.00% # Class of executed instruction
system.cpu3.op_class::FloatSqrt                     0      0.00%     84.00% # Class of executed instruction
system.cpu3.op_class::SimdAdd                       0      0.00%     84.00% # Class of executed instruction
system.cpu3.op_class::SimdAddAcc                    0      0.00%     84.00% # Class of executed instruction
system.cpu3.op_class::SimdAlu                       0      0.00%     84.00% # Class of executed instruction
system.cpu3.op_class::SimdCmp                       0      0.00%     84.00% # Class of executed instruction
system.cpu3.op_class::SimdCvt                       0      0.00%     84.00% # Class of executed instruction
system.cpu3.op_class::SimdMisc                      0      0.00%     84.00% # Class of executed instruction
system.cpu3.op_class::SimdMult                      0      0.00%     84.00% # Class of executed instruction
system.cpu3.op_class::SimdMultAcc                   0      0.00%     84.00% # Class of executed instruction
system.cpu3.op_class::SimdShift                     0      0.00%     84.00% # Class of executed instruction
system.cpu3.op_class::SimdShiftAcc                  0      0.00%     84.00% # Class of executed instruction
system.cpu3.op_class::SimdDiv                       0      0.00%     84.00% # Class of executed instruction
system.cpu3.op_class::SimdSqrt                      0      0.00%     84.00% # Class of executed instruction
system.cpu3.op_class::SimdFloatAdd                  0      0.00%     84.00% # Class of executed instruction
system.cpu3.op_class::SimdFloatAlu                  0      0.00%     84.00% # Class of executed instruction
system.cpu3.op_class::SimdFloatCmp                  0      0.00%     84.00% # Class of executed instruction
system.cpu3.op_class::SimdFloatCvt                  0      0.00%     84.00% # Class of executed instruction
system.cpu3.op_class::SimdFloatDiv                  0      0.00%     84.00% # Class of executed instruction
system.cpu3.op_class::SimdFloatMisc                 0      0.00%     84.00% # Class of executed instruction
system.cpu3.op_class::SimdFloatMult                 0      0.00%     84.00% # Class of executed instruction
system.cpu3.op_class::SimdFloatMultAcc              0      0.00%     84.00% # Class of executed instruction
system.cpu3.op_class::SimdFloatSqrt                 0      0.00%     84.00% # Class of executed instruction
system.cpu3.op_class::SimdReduceAdd                 0      0.00%     84.00% # Class of executed instruction
system.cpu3.op_class::SimdReduceAlu                 0      0.00%     84.00% # Class of executed instruction
system.cpu3.op_class::SimdReduceCmp                 0      0.00%     84.00% # Class of executed instruction
system.cpu3.op_class::SimdFloatReduceAdd            0      0.00%     84.00% # Class of executed instruction
system.cpu3.op_class::SimdFloatReduceCmp            0      0.00%     84.00% # Class of executed instruction
system.cpu3.op_class::SimdAes                       0      0.00%     84.00% # Class of executed instruction
system.cpu3.op_class::SimdAesMix                    0      0.00%     84.00% # Class of executed instruction
system.cpu3.op_class::SimdSha1Hash                  0      0.00%     84.00% # Class of executed instruction
system.cpu3.op_class::SimdSha1Hash2                 0      0.00%     84.00% # Class of executed instruction
system.cpu3.op_class::SimdSha256Hash                0      0.00%     84.00% # Class of executed instruction
system.cpu3.op_class::SimdSha256Hash2               0      0.00%     84.00% # Class of executed instruction
system.cpu3.op_class::SimdShaSigma2                 0      0.00%     84.00% # Class of executed instruction
system.cpu3.op_class::SimdShaSigma3                 0      0.00%     84.00% # Class of executed instruction
system.cpu3.op_class::SimdPredAlu                   0      0.00%     84.00% # Class of executed instruction
system.cpu3.op_class::MemRead                       4     16.00%    100.00% # Class of executed instruction
system.cpu3.op_class::MemWrite                      0      0.00%    100.00% # Class of executed instruction
system.cpu3.op_class::FloatMemRead                  0      0.00%    100.00% # Class of executed instruction
system.cpu3.op_class::FloatMemWrite                 0      0.00%    100.00% # Class of executed instruction
system.cpu3.op_class::IprAccess                     0      0.00%    100.00% # Class of executed instruction
system.cpu3.op_class::InstPrefetch                  0      0.00%    100.00% # Class of executed instruction
system.cpu3.op_class::total                        25                       # Class of executed instruction
system.cpu3.workload.numSyscalls                    0                       # Number of system calls
system.l3bus.snoop_filter.hit_multi_requests            0                       # Number of requests hitting in the snoop filter with multiple (>1) holders of the requested data.
system.l3bus.snoop_filter.hit_multi_snoops            0                       # Number of snoops hitting in the snoop filter with multiple (>1) holders of the requested data.
system.l3bus.snoop_filter.hit_single_requests       211213                       # Number of requests hitting in the snoop filter with a single holder of the requested data.
system.l3bus.snoop_filter.hit_single_snoops            0                       # Number of snoops hitting in the snoop filter with a single holder of the requested data.
system.l3bus.snoop_filter.tot_requests         433753                       # Total number of requests made to the snoop filter.
system.l3bus.snoop_filter.tot_snoops                0                       # Total number of snoops made to the snoop filter.
system.membus.snoop_filter.hit_multi_requests            0                       # Number of requests hitting in the snoop filter with multiple (>1) holders of the requested data.
system.membus.snoop_filter.hit_multi_snoops            0                       # Number of snoops hitting in the snoop filter with multiple (>1) holders of the requested data.
system.membus.snoop_filter.hit_single_requests         4039                       # Number of requests hitting in the snoop filter with a single holder of the requested data.
system.membus.snoop_filter.hit_single_snoops            0                       # Number of snoops hitting in the snoop filter with a single holder of the requested data.
system.membus.snoop_filter.tot_requests         66390                       # Total number of requests made to the snoop filter.
system.membus.snoop_filter.tot_snoops               0                       # Total number of snoops made to the snoop filter.
system.switch_cpus0.cc_regfile_reads        318655589                       # number of cc regfile reads
system.switch_cpus0.cc_regfile_writes       224804851                       # number of cc regfile writes
system.switch_cpus0.committedInsts          249991224                       # Number of Instructions Simulated
system.switch_cpus0.committedOps            459833168                       # Number of Ops (including micro ops) Simulated
system.switch_cpus0.cpi                      0.932077                       # CPI: Cycles Per Instruction
system.switch_cpus0.cpi_total                0.932077                       # CPI: Total CPI of All Threads
system.switch_cpus0.fp_regfile_reads          1975578                       # number of floating regfile reads
system.switch_cpus0.fp_regfile_writes         1431684                       # number of floating regfile writes
system.switch_cpus0.idleCycles                 194869                       # Total number of cycles that the CPU has spent unscheduled due to idling
system.switch_cpus0.iew.branchMispredicts      5862141                       # Number of branch mispredicts detected at execute
system.switch_cpus0.iew.exec_branches        60470241                       # Number of branches executed
system.switch_cpus0.iew.exec_nop                    0                       # number of nop insts executed
system.switch_cpus0.iew.exec_rate            2.796385                       # Inst execution rate
system.switch_cpus0.iew.exec_refs           133025709                       # number of memory reference insts executed
system.switch_cpus0.iew.exec_stores          33044550                       # Number of stores executed
system.switch_cpus0.iew.exec_swp                    0                       # number of swp insts executed
system.switch_cpus0.iew.iewBlockCycles       40227327                       # Number of cycles IEW is blocking
system.switch_cpus0.iew.iewDispLoadInsts    123918534                       # Number of dispatched load instructions
system.switch_cpus0.iew.iewDispNonSpecInsts          109                       # Number of dispatched non-speculative instructions
system.switch_cpus0.iew.iewDispSquashedInsts       160352                       # Number of squashed instructions skipped by dispatch
system.switch_cpus0.iew.iewDispStoreInsts     41202107                       # Number of dispatched store instructions
system.switch_cpus0.iew.iewDispatchedInsts    793536202                       # Number of instructions dispatched to IQ
system.switch_cpus0.iew.iewExecLoadInsts     99981159                       # Number of load instructions executed
system.switch_cpus0.iew.iewExecSquashedInsts     11231755                       # Number of squashed instructions skipped in execute
system.switch_cpus0.iew.iewExecutedInsts    651588469                       # Number of executed instructions
system.switch_cpus0.iew.iewIQFullEvents         12951                       # Number of times the IQ has become full, causing a stall
system.switch_cpus0.iew.iewIdleCycles               0                       # Number of cycles IEW is idle
system.switch_cpus0.iew.iewLSQFullEvents       172028                       # Number of times the LSQ has become full, causing a stall
system.switch_cpus0.iew.iewSquashCycles       5213899                       # Number of cycles IEW is squashing
system.switch_cpus0.iew.iewUnblockCycles       184137                       # Number of cycles IEW is unblocking
system.switch_cpus0.iew.memOrderViolationEvents        40645                       # Number of memory order violations
system.switch_cpus0.iew.predictedNotTakenIncorrect      3219609                       # Number of branches that were predicted not taken incorrectly
system.switch_cpus0.iew.predictedTakenIncorrect      2642532                       # Number of branches that were predicted taken incorrectly
system.switch_cpus0.iew.wb_consumers        877935986                       # num instructions consuming a value
system.switch_cpus0.iew.wb_count            646659977                       # cumulative count of insts written-back
system.switch_cpus0.iew.wb_fanout            0.572698                       # average fanout of values written-back
system.switch_cpus0.iew.wb_producers        502792324                       # num instructions producing a value
system.switch_cpus0.iew.wb_rate              2.775234                       # insts written-back per cycle
system.switch_cpus0.iew.wb_sent             650360116                       # cumulative count of insts sent to commit
system.switch_cpus0.int_regfile_reads       996350015                       # number of integer regfile reads
system.switch_cpus0.int_regfile_writes      570988615                       # number of integer regfile writes
system.switch_cpus0.ipc                      1.072873                       # IPC: Instructions Per Cycle
system.switch_cpus0.ipc_total                1.072873                       # IPC: Total IPC of All Threads
system.switch_cpus0.iq.FU_type_0::No_OpClass      3357502      0.51%      0.51% # Type of FU issued
system.switch_cpus0.iq.FU_type_0::IntAlu    511602187     77.19%     77.69% # Type of FU issued
system.switch_cpus0.iq.FU_type_0::IntMult      2778005      0.42%     78.11% # Type of FU issued
system.switch_cpus0.iq.FU_type_0::IntDiv      6876718      1.04%     79.15% # Type of FU issued
system.switch_cpus0.iq.FU_type_0::FloatAdd        48699      0.01%     79.16% # Type of FU issued
system.switch_cpus0.iq.FU_type_0::FloatCmp            0      0.00%     79.16% # Type of FU issued
system.switch_cpus0.iq.FU_type_0::FloatCvt          354      0.00%     79.16% # Type of FU issued
system.switch_cpus0.iq.FU_type_0::FloatMult            0      0.00%     79.16% # Type of FU issued
system.switch_cpus0.iq.FU_type_0::FloatMultAcc            0      0.00%     79.16% # Type of FU issued
system.switch_cpus0.iq.FU_type_0::FloatDiv            0      0.00%     79.16% # Type of FU issued
system.switch_cpus0.iq.FU_type_0::FloatMisc            0      0.00%     79.16% # Type of FU issued
system.switch_cpus0.iq.FU_type_0::FloatSqrt            0      0.00%     79.16% # Type of FU issued
system.switch_cpus0.iq.FU_type_0::SimdAdd            0      0.00%     79.16% # Type of FU issued
system.switch_cpus0.iq.FU_type_0::SimdAddAcc            0      0.00%     79.16% # Type of FU issued
system.switch_cpus0.iq.FU_type_0::SimdAlu        45083      0.01%     79.16% # Type of FU issued
system.switch_cpus0.iq.FU_type_0::SimdCmp            0      0.00%     79.16% # Type of FU issued
system.switch_cpus0.iq.FU_type_0::SimdCvt           28      0.00%     79.16% # Type of FU issued
system.switch_cpus0.iq.FU_type_0::SimdMisc       118334      0.02%     79.18% # Type of FU issued
system.switch_cpus0.iq.FU_type_0::SimdMult            0      0.00%     79.18% # Type of FU issued
system.switch_cpus0.iq.FU_type_0::SimdMultAcc            0      0.00%     79.18% # Type of FU issued
system.switch_cpus0.iq.FU_type_0::SimdShift            0      0.00%     79.18% # Type of FU issued
system.switch_cpus0.iq.FU_type_0::SimdShiftAcc            0      0.00%     79.18% # Type of FU issued
system.switch_cpus0.iq.FU_type_0::SimdDiv            0      0.00%     79.18% # Type of FU issued
system.switch_cpus0.iq.FU_type_0::SimdSqrt            0      0.00%     79.18% # Type of FU issued
system.switch_cpus0.iq.FU_type_0::SimdFloatAdd       113683      0.02%     79.20% # Type of FU issued
system.switch_cpus0.iq.FU_type_0::SimdFloatAlu            0      0.00%     79.20% # Type of FU issued
system.switch_cpus0.iq.FU_type_0::SimdFloatCmp            0      0.00%     79.20% # Type of FU issued
system.switch_cpus0.iq.FU_type_0::SimdFloatCvt       247906      0.04%     79.24% # Type of FU issued
system.switch_cpus0.iq.FU_type_0::SimdFloatDiv         3052      0.00%     79.24% # Type of FU issued
system.switch_cpus0.iq.FU_type_0::SimdFloatMisc            0      0.00%     79.24% # Type of FU issued
system.switch_cpus0.iq.FU_type_0::SimdFloatMult            0      0.00%     79.24% # Type of FU issued
system.switch_cpus0.iq.FU_type_0::SimdFloatMultAcc            0      0.00%     79.24% # Type of FU issued
system.switch_cpus0.iq.FU_type_0::SimdFloatSqrt            0      0.00%     79.24% # Type of FU issued
system.switch_cpus0.iq.FU_type_0::SimdReduceAdd            0      0.00%     79.24% # Type of FU issued
system.switch_cpus0.iq.FU_type_0::SimdReduceAlu            0      0.00%     79.24% # Type of FU issued
system.switch_cpus0.iq.FU_type_0::SimdReduceCmp            0      0.00%     79.24% # Type of FU issued
system.switch_cpus0.iq.FU_type_0::SimdFloatReduceAdd            0      0.00%     79.24% # Type of FU issued
system.switch_cpus0.iq.FU_type_0::SimdFloatReduceCmp            0      0.00%     79.24% # Type of FU issued
system.switch_cpus0.iq.FU_type_0::SimdAes            0      0.00%     79.24% # Type of FU issued
system.switch_cpus0.iq.FU_type_0::SimdAesMix            0      0.00%     79.24% # Type of FU issued
system.switch_cpus0.iq.FU_type_0::SimdSha1Hash            0      0.00%     79.24% # Type of FU issued
system.switch_cpus0.iq.FU_type_0::SimdSha1Hash2            0      0.00%     79.24% # Type of FU issued
system.switch_cpus0.iq.FU_type_0::SimdSha256Hash            0      0.00%     79.24% # Type of FU issued
system.switch_cpus0.iq.FU_type_0::SimdSha256Hash2            0      0.00%     79.24% # Type of FU issued
system.switch_cpus0.iq.FU_type_0::SimdShaSigma2            0      0.00%     79.24% # Type of FU issued
system.switch_cpus0.iq.FU_type_0::SimdShaSigma3            0      0.00%     79.24% # Type of FU issued
system.switch_cpus0.iq.FU_type_0::SimdPredAlu            0      0.00%     79.24% # Type of FU issued
system.switch_cpus0.iq.FU_type_0::MemRead    102539880     15.47%     94.71% # Type of FU issued
system.switch_cpus0.iq.FU_type_0::MemWrite     33165896      5.00%     99.71% # Type of FU issued
system.switch_cpus0.iq.FU_type_0::FloatMemRead      1025310      0.15%     99.86% # Type of FU issued
system.switch_cpus0.iq.FU_type_0::FloatMemWrite       897590      0.14%    100.00% # Type of FU issued
system.switch_cpus0.iq.FU_type_0::IprAccess            0      0.00%    100.00% # Type of FU issued
system.switch_cpus0.iq.FU_type_0::InstPrefetch            0      0.00%    100.00% # Type of FU issued
system.switch_cpus0.iq.FU_type_0::total     662820227                       # Type of FU issued
system.switch_cpus0.iq.fp_alu_accesses        2611043                       # Number of floating point alu accesses
system.switch_cpus0.iq.fp_inst_queue_reads      5133004                       # Number of floating instruction queue reads
system.switch_cpus0.iq.fp_inst_queue_wakeup_accesses      2426850                       # Number of floating instruction queue wakeup accesses
system.switch_cpus0.iq.fp_inst_queue_writes      3909740                       # Number of floating instruction queue writes
system.switch_cpus0.iq.fu_busy_cnt           11699189                       # FU busy when requested
system.switch_cpus0.iq.fu_busy_rate          0.017651                       # FU busy rate (busy events/executed inst)
system.switch_cpus0.iq.fu_full::No_OpClass            0      0.00%      0.00% # attempts to use FU when none available
system.switch_cpus0.iq.fu_full::IntAlu        9741612     83.27%     83.27% # attempts to use FU when none available
system.switch_cpus0.iq.fu_full::IntMult             0      0.00%     83.27% # attempts to use FU when none available
system.switch_cpus0.iq.fu_full::IntDiv              0      0.00%     83.27% # attempts to use FU when none available
system.switch_cpus0.iq.fu_full::FloatAdd            0      0.00%     83.27% # attempts to use FU when none available
system.switch_cpus0.iq.fu_full::FloatCmp            0      0.00%     83.27% # attempts to use FU when none available
system.switch_cpus0.iq.fu_full::FloatCvt            0      0.00%     83.27% # attempts to use FU when none available
system.switch_cpus0.iq.fu_full::FloatMult            0      0.00%     83.27% # attempts to use FU when none available
system.switch_cpus0.iq.fu_full::FloatMultAcc            0      0.00%     83.27% # attempts to use FU when none available
system.switch_cpus0.iq.fu_full::FloatDiv            0      0.00%     83.27% # attempts to use FU when none available
system.switch_cpus0.iq.fu_full::FloatMisc            0      0.00%     83.27% # attempts to use FU when none available
system.switch_cpus0.iq.fu_full::FloatSqrt            0      0.00%     83.27% # attempts to use FU when none available
system.switch_cpus0.iq.fu_full::SimdAdd             0      0.00%     83.27% # attempts to use FU when none available
system.switch_cpus0.iq.fu_full::SimdAddAcc            0      0.00%     83.27% # attempts to use FU when none available
system.switch_cpus0.iq.fu_full::SimdAlu             3      0.00%     83.27% # attempts to use FU when none available
system.switch_cpus0.iq.fu_full::SimdCmp             0      0.00%     83.27% # attempts to use FU when none available
system.switch_cpus0.iq.fu_full::SimdCvt             0      0.00%     83.27% # attempts to use FU when none available
system.switch_cpus0.iq.fu_full::SimdMisc            0      0.00%     83.27% # attempts to use FU when none available
system.switch_cpus0.iq.fu_full::SimdMult            0      0.00%     83.27% # attempts to use FU when none available
system.switch_cpus0.iq.fu_full::SimdMultAcc            0      0.00%     83.27% # attempts to use FU when none available
system.switch_cpus0.iq.fu_full::SimdShift            0      0.00%     83.27% # attempts to use FU when none available
system.switch_cpus0.iq.fu_full::SimdShiftAcc            0      0.00%     83.27% # attempts to use FU when none available
system.switch_cpus0.iq.fu_full::SimdDiv             0      0.00%     83.27% # attempts to use FU when none available
system.switch_cpus0.iq.fu_full::SimdSqrt            0      0.00%     83.27% # attempts to use FU when none available
system.switch_cpus0.iq.fu_full::SimdFloatAdd            0      0.00%     83.27% # attempts to use FU when none available
system.switch_cpus0.iq.fu_full::SimdFloatAlu            0      0.00%     83.27% # attempts to use FU when none available
system.switch_cpus0.iq.fu_full::SimdFloatCmp            0      0.00%     83.27% # attempts to use FU when none available
system.switch_cpus0.iq.fu_full::SimdFloatCvt            0      0.00%     83.27% # attempts to use FU when none available
system.switch_cpus0.iq.fu_full::SimdFloatDiv            0      0.00%     83.27% # attempts to use FU when none available
system.switch_cpus0.iq.fu_full::SimdFloatMisc            0      0.00%     83.27% # attempts to use FU when none available
system.switch_cpus0.iq.fu_full::SimdFloatMult            0      0.00%     83.27% # attempts to use FU when none available
system.switch_cpus0.iq.fu_full::SimdFloatMultAcc            0      0.00%     83.27% # attempts to use FU when none available
system.switch_cpus0.iq.fu_full::SimdFloatSqrt            0      0.00%     83.27% # attempts to use FU when none available
system.switch_cpus0.iq.fu_full::SimdReduceAdd            0      0.00%     83.27% # attempts to use FU when none available
system.switch_cpus0.iq.fu_full::SimdReduceAlu            0      0.00%     83.27% # attempts to use FU when none available
system.switch_cpus0.iq.fu_full::SimdReduceCmp            0      0.00%     83.27% # attempts to use FU when none available
system.switch_cpus0.iq.fu_full::SimdFloatReduceAdd            0      0.00%     83.27% # attempts to use FU when none available
system.switch_cpus0.iq.fu_full::SimdFloatReduceCmp            0      0.00%     83.27% # attempts to use FU when none available
system.switch_cpus0.iq.fu_full::SimdAes             0      0.00%     83.27% # attempts to use FU when none available
system.switch_cpus0.iq.fu_full::SimdAesMix            0      0.00%     83.27% # attempts to use FU when none available
system.switch_cpus0.iq.fu_full::SimdSha1Hash            0      0.00%     83.27% # attempts to use FU when none available
system.switch_cpus0.iq.fu_full::SimdSha1Hash2            0      0.00%     83.27% # attempts to use FU when none available
system.switch_cpus0.iq.fu_full::SimdSha256Hash            0      0.00%     83.27% # attempts to use FU when none available
system.switch_cpus0.iq.fu_full::SimdSha256Hash2            0      0.00%     83.27% # attempts to use FU when none available
system.switch_cpus0.iq.fu_full::SimdShaSigma2            0      0.00%     83.27% # attempts to use FU when none available
system.switch_cpus0.iq.fu_full::SimdShaSigma3            0      0.00%     83.27% # attempts to use FU when none available
system.switch_cpus0.iq.fu_full::SimdPredAlu            0      0.00%     83.27% # attempts to use FU when none available
system.switch_cpus0.iq.fu_full::MemRead       1427181     12.20%     95.47% # attempts to use FU when none available
system.switch_cpus0.iq.fu_full::MemWrite       436936      3.73%     99.20% # attempts to use FU when none available
system.switch_cpus0.iq.fu_full::FloatMemRead        56356      0.48%     99.68% # attempts to use FU when none available
system.switch_cpus0.iq.fu_full::FloatMemWrite        37101      0.32%    100.00% # attempts to use FU when none available
system.switch_cpus0.iq.fu_full::IprAccess            0      0.00%    100.00% # attempts to use FU when none available
system.switch_cpus0.iq.fu_full::InstPrefetch            0      0.00%    100.00% # attempts to use FU when none available
system.switch_cpus0.iq.int_alu_accesses     668550871                       # Number of integer alu accesses
system.switch_cpus0.iq.int_inst_queue_reads   1568323957                       # Number of integer instruction queue reads
system.switch_cpus0.iq.int_inst_queue_wakeup_accesses    644233127                       # Number of integer instruction queue wakeup accesses
system.switch_cpus0.iq.int_inst_queue_writes   1123368326                       # Number of integer instruction queue writes
system.switch_cpus0.iq.iqInstsAdded         793499019                       # Number of instructions added to the IQ (excludes non-spec)
system.switch_cpus0.iq.iqInstsIssued        662820227                       # Number of instructions issued
system.switch_cpus0.iq.iqNonSpecInstsAdded        37183                       # Number of non-speculative instructions added to the IQ
system.switch_cpus0.iq.iqSquashedInstsExamined    333702911                       # Number of squashed instructions iterated over during squash; mainly for profiling
system.switch_cpus0.iq.iqSquashedInstsIssued      3301219                       # Number of squashed instructions issued
system.switch_cpus0.iq.iqSquashedNonSpecRemoved        31787                       # Number of squashed non-spec instructions that were removed
system.switch_cpus0.iq.iqSquashedOperandsExamined    479791466                       # Number of squashed operands that are examined and possibly removed from graph
system.switch_cpus0.iq.issued_per_cycle::samples    232816102                       # Number of insts issued each cycle
system.switch_cpus0.iq.issued_per_cycle::mean     2.846969                       # Number of insts issued each cycle
system.switch_cpus0.iq.issued_per_cycle::stdev     2.613837                       # Number of insts issued each cycle
system.switch_cpus0.iq.issued_per_cycle::underflows            0      0.00%      0.00% # Number of insts issued each cycle
system.switch_cpus0.iq.issued_per_cycle::0     72504367     31.14%     31.14% # Number of insts issued each cycle
system.switch_cpus0.iq.issued_per_cycle::1     22616911      9.71%     40.86% # Number of insts issued each cycle
system.switch_cpus0.iq.issued_per_cycle::2     22240451      9.55%     50.41% # Number of insts issued each cycle
system.switch_cpus0.iq.issued_per_cycle::3     22150762      9.51%     59.92% # Number of insts issued each cycle
system.switch_cpus0.iq.issued_per_cycle::4     23052592      9.90%     69.83% # Number of insts issued each cycle
system.switch_cpus0.iq.issued_per_cycle::5     22293071      9.58%     79.40% # Number of insts issued each cycle
system.switch_cpus0.iq.issued_per_cycle::6     21143339      9.08%     88.48% # Number of insts issued each cycle
system.switch_cpus0.iq.issued_per_cycle::7     15782501      6.78%     95.26% # Number of insts issued each cycle
system.switch_cpus0.iq.issued_per_cycle::8     11032108      4.74%    100.00% # Number of insts issued each cycle
system.switch_cpus0.iq.issued_per_cycle::overflows            0      0.00%    100.00% # Number of insts issued each cycle
system.switch_cpus0.iq.issued_per_cycle::min_value            0                       # Number of insts issued each cycle
system.switch_cpus0.iq.issued_per_cycle::max_value            8                       # Number of insts issued each cycle
system.switch_cpus0.iq.issued_per_cycle::total    232816102                       # Number of insts issued each cycle
system.switch_cpus0.iq.rate                  2.844588                       # Inst issue rate
system.switch_cpus0.iq.vec_alu_accesses             0                       # Number of vector alu accesses
system.switch_cpus0.iq.vec_inst_queue_reads            0                       # Number of vector instruction queue reads
system.switch_cpus0.iq.vec_inst_queue_wakeup_accesses            0                       # Number of vector instruction queue wakeup accesses
system.switch_cpus0.iq.vec_inst_queue_writes            0                       # Number of vector instruction queue writes
system.switch_cpus0.memDep0.conflictingLoads      7009707                       # Number of conflicting loads.
system.switch_cpus0.memDep0.conflictingStores      4701789                       # Number of conflicting stores.
system.switch_cpus0.memDep0.insertedLoads    123918534                       # Number of loads inserted to the mem dependence unit.
system.switch_cpus0.memDep0.insertedStores     41202107                       # Number of stores inserted to the mem dependence unit.
system.switch_cpus0.misc_regfile_reads      259050295                       # number of misc regfile reads
system.switch_cpus0.misc_regfile_writes             1                       # number of misc regfile writes
system.switch_cpus0.numCycles               233010971                       # number of cpu cycles simulated
system.switch_cpus0.numWorkItemsCompleted            0                       # number of work items this cpu completed
system.switch_cpus0.numWorkItemsStarted             0                       # number of work items this cpu started
system.switch_cpus0.timesIdled                   1046                       # Number of times that the entire CPU went into an idle state and unscheduled itself
system.switch_cpus1.cc_regfile_reads        318671112                       # number of cc regfile reads
system.switch_cpus1.cc_regfile_writes       224813477                       # number of cc regfile writes
system.switch_cpus1.committedInsts          250000000                       # Number of Instructions Simulated
system.switch_cpus1.committedOps            459848022                       # Number of Ops (including micro ops) Simulated
system.switch_cpus1.cpi                      0.932044                       # CPI: Cycles Per Instruction
system.switch_cpus1.cpi_total                0.932044                       # CPI: Total CPI of All Threads
system.switch_cpus1.fp_regfile_reads          1976119                       # number of floating regfile reads
system.switch_cpus1.fp_regfile_writes         1431855                       # number of floating regfile writes
system.switch_cpus1.idleCycles                 195870                       # Total number of cycles that the CPU has spent unscheduled due to idling
system.switch_cpus1.iew.branchMispredicts      5861871                       # Number of branch mispredicts detected at execute
system.switch_cpus1.iew.exec_branches        60473880                       # Number of branches executed
system.switch_cpus1.iew.exec_nop                    0                       # number of nop insts executed
system.switch_cpus1.iew.exec_rate            2.796465                       # Inst execution rate
system.switch_cpus1.iew.exec_refs           133028282                       # number of memory reference insts executed
system.switch_cpus1.iew.exec_stores          33045531                       # Number of stores executed
system.switch_cpus1.iew.exec_swp                    0                       # number of swp insts executed
system.switch_cpus1.iew.iewBlockCycles       40220696                       # Number of cycles IEW is blocking
system.switch_cpus1.iew.iewDispLoadInsts    123917981                       # Number of dispatched load instructions
system.switch_cpus1.iew.iewDispNonSpecInsts          109                       # Number of dispatched non-speculative instructions
system.switch_cpus1.iew.iewDispSquashedInsts       160225                       # Number of squashed instructions skipped by dispatch
system.switch_cpus1.iew.iewDispStoreInsts     41202412                       # Number of dispatched store instructions
system.switch_cpus1.iew.iewDispatchedInsts    793548165                       # Number of instructions dispatched to IQ
system.switch_cpus1.iew.iewExecLoadInsts     99982751                       # Number of load instructions executed
system.switch_cpus1.iew.iewExecSquashedInsts     11231957                       # Number of squashed instructions skipped in execute
system.switch_cpus1.iew.iewExecutedInsts    651606955                       # Number of executed instructions
system.switch_cpus1.iew.iewIQFullEvents         12811                       # Number of times the IQ has become full, causing a stall
system.switch_cpus1.iew.iewIdleCycles               0                       # Number of cycles IEW is idle
system.switch_cpus1.iew.iewLSQFullEvents       164645                       # Number of times the LSQ has become full, causing a stall
system.switch_cpus1.iew.iewSquashCycles       5213783                       # Number of cycles IEW is squashing
system.switch_cpus1.iew.iewUnblockCycles       176497                       # Number of cycles IEW is unblocking
system.switch_cpus1.iew.memOrderViolationEvents        40564                       # Number of memory order violations
system.switch_cpus1.iew.predictedNotTakenIncorrect      3219743                       # Number of branches that were predicted not taken incorrectly
system.switch_cpus1.iew.predictedTakenIncorrect      2642128                       # Number of branches that were predicted taken incorrectly
system.switch_cpus1.iew.wb_consumers        877952856                       # num instructions consuming a value
system.switch_cpus1.iew.wb_count            646678777                       # cumulative count of insts written-back
system.switch_cpus1.iew.wb_fanout            0.572706                       # average fanout of values written-back
system.switch_cpus1.iew.wb_producers        502808593                       # num instructions producing a value
system.switch_cpus1.iew.wb_rate              2.775315                       # insts written-back per cycle
system.switch_cpus1.iew.wb_sent             650378662                       # cumulative count of insts sent to commit
system.switch_cpus1.int_regfile_reads       996366498                       # number of integer regfile reads
system.switch_cpus1.int_regfile_writes      571002765                       # number of integer regfile writes
system.switch_cpus1.ipc                      1.072911                       # IPC: Instructions Per Cycle
system.switch_cpus1.ipc_total                1.072911                       # IPC: Total IPC of All Threads
system.switch_cpus1.iq.FU_type_0::No_OpClass      3357337      0.51%      0.51% # Type of FU issued
system.switch_cpus1.iq.FU_type_0::IntAlu    511618303     77.19%     77.69% # Type of FU issued
system.switch_cpus1.iq.FU_type_0::IntMult      2778010      0.42%     78.11% # Type of FU issued
system.switch_cpus1.iq.FU_type_0::IntDiv      6876817      1.04%     79.15% # Type of FU issued
system.switch_cpus1.iq.FU_type_0::FloatAdd        48755      0.01%     79.16% # Type of FU issued
system.switch_cpus1.iq.FU_type_0::FloatCmp            0      0.00%     79.16% # Type of FU issued
system.switch_cpus1.iq.FU_type_0::FloatCvt          374      0.00%     79.16% # Type of FU issued
system.switch_cpus1.iq.FU_type_0::FloatMult            0      0.00%     79.16% # Type of FU issued
system.switch_cpus1.iq.FU_type_0::FloatMultAcc            0      0.00%     79.16% # Type of FU issued
system.switch_cpus1.iq.FU_type_0::FloatDiv            0      0.00%     79.16% # Type of FU issued
system.switch_cpus1.iq.FU_type_0::FloatMisc            0      0.00%     79.16% # Type of FU issued
system.switch_cpus1.iq.FU_type_0::FloatSqrt            0      0.00%     79.16% # Type of FU issued
system.switch_cpus1.iq.FU_type_0::SimdAdd            0      0.00%     79.16% # Type of FU issued
system.switch_cpus1.iq.FU_type_0::SimdAddAcc            0      0.00%     79.16% # Type of FU issued
system.switch_cpus1.iq.FU_type_0::SimdAlu        45125      0.01%     79.16% # Type of FU issued
system.switch_cpus1.iq.FU_type_0::SimdCmp            0      0.00%     79.16% # Type of FU issued
system.switch_cpus1.iq.FU_type_0::SimdCvt           24      0.00%     79.16% # Type of FU issued
system.switch_cpus1.iq.FU_type_0::SimdMisc       118378      0.02%     79.18% # Type of FU issued
system.switch_cpus1.iq.FU_type_0::SimdMult            0      0.00%     79.18% # Type of FU issued
system.switch_cpus1.iq.FU_type_0::SimdMultAcc            0      0.00%     79.18% # Type of FU issued
system.switch_cpus1.iq.FU_type_0::SimdShift            0      0.00%     79.18% # Type of FU issued
system.switch_cpus1.iq.FU_type_0::SimdShiftAcc            0      0.00%     79.18% # Type of FU issued
system.switch_cpus1.iq.FU_type_0::SimdDiv            0      0.00%     79.18% # Type of FU issued
system.switch_cpus1.iq.FU_type_0::SimdSqrt            0      0.00%     79.18% # Type of FU issued
system.switch_cpus1.iq.FU_type_0::SimdFloatAdd       113702      0.02%     79.20% # Type of FU issued
system.switch_cpus1.iq.FU_type_0::SimdFloatAlu            0      0.00%     79.20% # Type of FU issued
system.switch_cpus1.iq.FU_type_0::SimdFloatCmp            0      0.00%     79.20% # Type of FU issued
system.switch_cpus1.iq.FU_type_0::SimdFloatCvt       247982      0.04%     79.24% # Type of FU issued
system.switch_cpus1.iq.FU_type_0::SimdFloatDiv         3078      0.00%     79.24% # Type of FU issued
system.switch_cpus1.iq.FU_type_0::SimdFloatMisc            0      0.00%     79.24% # Type of FU issued
system.switch_cpus1.iq.FU_type_0::SimdFloatMult            0      0.00%     79.24% # Type of FU issued
system.switch_cpus1.iq.FU_type_0::SimdFloatMultAcc            0      0.00%     79.24% # Type of FU issued
system.switch_cpus1.iq.FU_type_0::SimdFloatSqrt            0      0.00%     79.24% # Type of FU issued
system.switch_cpus1.iq.FU_type_0::SimdReduceAdd            0      0.00%     79.24% # Type of FU issued
system.switch_cpus1.iq.FU_type_0::SimdReduceAlu            0      0.00%     79.24% # Type of FU issued
system.switch_cpus1.iq.FU_type_0::SimdReduceCmp            0      0.00%     79.24% # Type of FU issued
system.switch_cpus1.iq.FU_type_0::SimdFloatReduceAdd            0      0.00%     79.24% # Type of FU issued
system.switch_cpus1.iq.FU_type_0::SimdFloatReduceCmp            0      0.00%     79.24% # Type of FU issued
system.switch_cpus1.iq.FU_type_0::SimdAes            0      0.00%     79.24% # Type of FU issued
system.switch_cpus1.iq.FU_type_0::SimdAesMix            0      0.00%     79.24% # Type of FU issued
system.switch_cpus1.iq.FU_type_0::SimdSha1Hash            0      0.00%     79.24% # Type of FU issued
system.switch_cpus1.iq.FU_type_0::SimdSha1Hash2            0      0.00%     79.24% # Type of FU issued
[...]
system.switch_cpus3.commit.numCommittedDist::1     55455463     29.56%     56.59% # Number of insts commited each cycle
system.switch_cpus3.commit.numCommittedDist::2     15973731      8.52%     65.11% # Number of insts commited each cycle
system.switch_cpus3.commit.numCommittedDist::3     19032147     10.15%     75.26% # Number of insts commited each cycle
system.switch_cpus3.commit.numCommittedDist::4      8542203      4.55%     79.81% # Number of insts commited each cycle
system.switch_cpus3.commit.numCommittedDist::5      4214029      2.25%     82.06% # Number of insts commited each cycle
system.switch_cpus3.commit.numCommittedDist::6      3312302      1.77%     83.82% # Number of insts commited each cycle
system.switch_cpus3.commit.numCommittedDist::7      2558999      1.36%     85.19% # Number of insts commited each cycle
system.switch_cpus3.commit.numCommittedDist::8     27789351     14.81%    100.00% # Number of insts commited each cycle
system.switch_cpus3.commit.numCommittedDist::overflows            0      0.00%    100.00% # Number of insts commited each cycle
system.switch_cpus3.commit.numCommittedDist::min_value            0                       # Number of insts commited each cycle
system.switch_cpus3.commit.numCommittedDist::max_value            8                       # Number of insts commited each cycle
system.switch_cpus3.commit.numCommittedDist::total    187582486                       # Number of insts commited each cycle
system.switch_cpus3.commit.instsCommitted    249995260                       # Number of instructions committed
system.switch_cpus3.commit.opsCommitted     459839936                       # Number of ops (including micro ops) committed
system.switch_cpus3.commit.memRefs           94321666                       # Number of memory references committed
system.switch_cpus3.commit.loads             69205721                       # Number of loads committed
system.switch_cpus3.commit.amos                     0                       # Number of atomic instructions committed
system.switch_cpus3.commit.membars                 80                       # Number of memory barriers committed
system.switch_cpus3.commit.branches          44716447                       # Number of branches committed
system.switch_cpus3.commit.vector                   0                       # Number of committed Vector instructions.
system.switch_cpus3.commit.floating           1967926                       # Number of committed floating point instructions.
system.switch_cpus3.commit.integer          456284620                       # Number of committed integer instructions.
system.switch_cpus3.commit.functionCalls      6687295                       # Number of function calls committed.
system.switch_cpus3.commit.committedInstType_0::No_OpClass      2969193      0.65%      0.65% # Class of committed instruction
system.switch_cpus3.commit.committedInstType_0::IntAlu    352566318     76.67%     77.32% # Class of committed instruction
system.switch_cpus3.commit.committedInstType_0::IntMult      2723490      0.59%     77.91% # Class of committed instruction
system.switch_cpus3.commit.committedInstType_0::IntDiv      6755289      1.47%     79.38% # Class of committed instruction
system.switch_cpus3.commit.committedInstType_0::FloatAdd        32287      0.01%     79.39% # Class of committed instruction
system.switch_cpus3.commit.committedInstType_0::FloatCmp            0      0.00%     79.39% # Class of committed instruction
system.switch_cpus3.commit.committedInstType_0::FloatCvt            0      0.00%     79.39% # Class of committed instruction
system.switch_cpus3.commit.committedInstType_0::FloatMult            0      0.00%     79.39% # Class of committed instruction
system.switch_cpus3.commit.committedInstType_0::FloatMultAcc            0      0.00%     79.39% # Class of committed instruction
system.switch_cpus3.commit.committedInstType_0::FloatDiv            0      0.00%     79.39% # Class of committed instruction
system.switch_cpus3.commit.committedInstType_0::FloatMisc            0      0.00%     79.39% # Class of committed instruction
system.switch_cpus3.commit.committedInstType_0::FloatSqrt            0      0.00%     79.39% # Class of committed instruction
system.switch_cpus3.commit.committedInstType_0::SimdAdd            0      0.00%     79.39% # Class of committed instruction
system.switch_cpus3.commit.committedInstType_0::SimdAddAcc            0      0.00%     79.39% # Class of committed instruction
system.switch_cpus3.commit.committedInstType_0::SimdAlu        34388      0.01%     79.39% # Class of committed instruction
system.switch_cpus3.commit.committedInstType_0::SimdCmp            0      0.00%     79.39% # Class of committed instruction
system.switch_cpus3.commit.committedInstType_0::SimdCvt           24      0.00%     79.39% # Class of committed instruction
system.switch_cpus3.commit.committedInstType_0::SimdMisc       107719      0.02%     79.42% # Class of committed instruction
system.switch_cpus3.commit.committedInstType_0::SimdMult            0      0.00%     79.42% # Class of committed instruction
system.switch_cpus3.commit.committedInstType_0::SimdMultAcc            0      0.00%     79.42% # Class of committed instruction
system.switch_cpus3.commit.committedInstType_0::SimdShift            0      0.00%     79.42% # Class of committed instruction
system.switch_cpus3.commit.committedInstType_0::SimdShiftAcc            0      0.00%     79.42% # Class of committed instruction
system.switch_cpus3.commit.committedInstType_0::SimdDiv            0      0.00%     79.42% # Class of committed instruction
system.switch_cpus3.commit.committedInstType_0::SimdSqrt            0      0.00%     79.42% # Class of committed instruction
system.switch_cpus3.commit.committedInstType_0::SimdFloatAdd       103565      0.02%     79.44% # Class of committed instruction
system.switch_cpus3.commit.committedInstType_0::SimdFloatAlu            0      0.00%     79.44% # Class of committed instruction
system.switch_cpus3.commit.committedInstType_0::SimdFloatCmp            0      0.00%     79.44% # Class of committed instruction
system.switch_cpus3.commit.committedInstType_0::SimdFloatCvt       224682      0.05%     79.49% # Class of committed instruction
system.switch_cpus3.commit.committedInstType_0::SimdFloatDiv         1315      0.00%     79.49% # Class of committed instruction
system.switch_cpus3.commit.committedInstType_0::SimdFloatMisc            0      0.00%     79.49% # Class of committed instruction
system.switch_cpus3.commit.committedInstType_0::SimdFloatMult            0      0.00%     79.49% # Class of committed instruction
system.switch_cpus3.commit.committedInstType_0::SimdFloatMultAcc            0      0.00%     79.49% # Class of committed instruction
system.switch_cpus3.commit.committedInstType_0::SimdFloatSqrt            0      0.00%     79.49% # Class of committed instruction
system.switch_cpus3.commit.committedInstType_0::SimdReduceAdd            0      0.00%     79.49% # Class of committed instruction
system.switch_cpus3.commit.committedInstType_0::SimdReduceAlu            0      0.00%     79.49% # Class of committed instruction
system.switch_cpus3.commit.committedInstType_0::SimdReduceCmp            0      0.00%     79.49% # Class of committed instruction
system.switch_cpus3.commit.committedInstType_0::SimdFloatReduceAdd            0      0.00%     79.49% # Class of committed instruction
system.switch_cpus3.commit.committedInstType_0::SimdFloatReduceCmp            0      0.00%     79.49% # Class of committed instruction
system.switch_cpus3.commit.committedInstType_0::SimdAes            0      0.00%     79.49% # Class of committed instruction
system.switch_cpus3.commit.committedInstType_0::SimdAesMix            0      0.00%     79.49% # Class of committed instruction
system.switch_cpus3.commit.committedInstType_0::SimdSha1Hash            0      0.00%     79.49% # Class of committed instruction
system.switch_cpus3.commit.committedInstType_0::SimdSha1Hash2            0      0.00%     79.49% # Class of committed instruction
system.switch_cpus3.commit.committedInstType_0::SimdSha256Hash            0      0.00%     79.49% # Class of committed instruction
system.switch_cpus3.commit.committedInstType_0::SimdSha256Hash2            0      0.00%     79.49% # Class of committed instruction
system.switch_cpus3.commit.committedInstType_0::SimdShaSigma2            0      0.00%     79.49% # Class of committed instruction
system.switch_cpus3.commit.committedInstType_0::SimdShaSigma3            0      0.00%     79.49% # Class of committed instruction
system.switch_cpus3.commit.committedInstType_0::SimdPredAlu            0      0.00%     79.49% # Class of committed instruction
system.switch_cpus3.commit.committedInstType_0::MemRead     68377378     14.87%     94.36% # Class of committed instruction
system.switch_cpus3.commit.committedInstType_0::MemWrite     24491055      5.33%     99.68% # Class of committed instruction
system.switch_cpus3.commit.committedInstType_0::FloatMemRead       828343      0.18%     99.86% # Class of committed instruction
system.switch_cpus3.commit.committedInstType_0::FloatMemWrite       624890      0.14%    100.00% # Class of committed instruction
system.switch_cpus3.commit.committedInstType_0::IprAccess            0      0.00%    100.00% # Class of committed instruction
system.switch_cpus3.commit.committedInstType_0::InstPrefetch            0      0.00%    100.00% # Class of committed instruction
system.switch_cpus3.commit.committedInstType_0::total    459839936                       # Class of committed instruction
system.switch_cpus3.commit.commitEligibleSamples     27789351                       # number cycles where commit BW limit reached
system.switch_cpus3.decode.idleCycles        22328668                       # Number of cycles decode is idle
system.switch_cpus3.decode.blockedCycles     83404314                       # Number of cycles decode is blocked
system.switch_cpus3.decode.runCycles         95536734                       # Number of cycles decode is running
system.switch_cpus3.decode.unblockCycles     26333738                       # Number of cycles decode is unblocking
system.switch_cpus3.decode.squashCycles       5214180                       # Number of cycles decode is squashing
system.switch_cpus3.decode.branchResolved     40264792                       # Number of times decode resolved a  branch
system.switch_cpus3.decode.branchMispred       342861                       # Number of times decode detected a branch misprediction
system.switch_cpus3.decode.decodedInsts     881314359                       # Number of instructions handled by decode
system.switch_cpus3.decode.squashedInsts      1951261                       # Number of squashed instructions handled by decode
system.switch_cpus3.dtb.rdAccesses           99990285                       # TLB accesses on read requests
system.switch_cpus3.dtb.wrAccesses           33052008                       # TLB accesses on write requests
system.switch_cpus3.dtb.rdMisses               131225                       # TLB misses on read requests
system.switch_cpus3.dtb.wrMisses                 5768                       # TLB misses on write requests
system.switch_cpus3.dtb.walker.power_state.pwrStateResidencyTicks::UNDEFINED 18651237554871                       # Cumulative time (in ticks) in various power states
system.switch_cpus3.fetch.icacheStallCycles      4988976                       # Number of cycles fetch is stalled on an Icache miss
system.switch_cpus3.fetch.insts             535821557                       # Number of instructions fetch has processed
system.switch_cpus3.fetch.branches           98955268                       # Number of branches that fetch encountered
system.switch_cpus3.fetch.predictedBranches     57459155                       # Number of branches that fetch has predicted taken
system.switch_cpus3.fetch.cycles            222284048                       # Number of cycles fetch has run and was not squashing or blocked
system.switch_cpus3.fetch.squashCycles       11080970                       # Number of cycles fetch has spent squashing
system.switch_cpus3.fetch.miscStallCycles          373                       # Number of cycles fetch has spent waiting on interrupts,or bad addresses, or out of MSHRs
system.switch_cpus3.fetch.pendingTrapStallCycles         3763                       # Number of stall cycles due to pending traps
system.switch_cpus3.fetch.cacheLines         81624948                       # Number of cache lines fetched
system.switch_cpus3.fetch.icacheSquashes        11850                       # Number of outstanding Icache misses that were squashed
system.switch_cpus3.fetch.nisnDist::samples    232817645                       # Number of instructions fetched each cycle (Total)
system.switch_cpus3.fetch.nisnDist::mean     4.176573                       # Number of instructions fetched each cycle (Total)
system.switch_cpus3.fetch.nisnDist::stdev     3.379766                       # Number of instructions fetched each cycle (Total)
system.switch_cpus3.fetch.nisnDist::underflows            0      0.00%      0.00% # Number of instructions fetched each cycle (Total)
system.switch_cpus3.fetch.nisnDist::0        68086585     29.24%     29.24% # Number of instructions fetched each cycle (Total)
system.switch_cpus3.fetch.nisnDist::1        12386414      5.32%     34.56% # Number of instructions fetched each cycle (Total)
system.switch_cpus3.fetch.nisnDist::2         9603417      4.12%     38.69% # Number of instructions fetched each cycle (Total)
system.switch_cpus3.fetch.nisnDist::3        14993407      6.44%     45.13% # Number of instructions fetched each cycle (Total)
system.switch_cpus3.fetch.nisnDist::4        10951330      4.70%     49.83% # Number of instructions fetched each cycle (Total)
system.switch_cpus3.fetch.nisnDist::5        16049543      6.89%     56.73% # Number of instructions fetched each cycle (Total)
system.switch_cpus3.fetch.nisnDist::6        11988294      5.15%     61.88% # Number of instructions fetched each cycle (Total)
system.switch_cpus3.fetch.nisnDist::7        10245659      4.40%     66.28% # Number of instructions fetched each cycle (Total)
system.switch_cpus3.fetch.nisnDist::8        78512996     33.72%    100.00% # Number of instructions fetched each cycle (Total)
system.switch_cpus3.fetch.nisnDist::overflows            0      0.00%    100.00% # Number of instructions fetched each cycle (Total)
system.switch_cpus3.fetch.nisnDist::min_value            0                       # Number of instructions fetched each cycle (Total)
system.switch_cpus3.fetch.nisnDist::max_value            8                       # Number of instructions fetched each cycle (Total)
system.switch_cpus3.fetch.nisnDist::total    232817645                       # Number of instructions fetched each cycle (Total)
system.switch_cpus3.fetch.branchRate         0.424681                       # Number of branch fetches per cycle
system.switch_cpus3.fetch.rate               2.299555                       # Number of inst fetches per cycle
system.switch_cpus3.itb.rdAccesses                  0                       # TLB accesses on read requests
system.switch_cpus3.itb.wrAccesses           81625377                       # TLB accesses on write requests
system.switch_cpus3.itb.rdMisses                    0                       # TLB misses on read requests
system.switch_cpus3.itb.wrMisses                  523                       # TLB misses on write requests
system.switch_cpus3.itb.walker.power_state.pwrStateResidencyTicks::UNDEFINED 18651237554871                       # Cumulative time (in ticks) in various power states
system.switch_cpus3.lsq0.forwLoads           13030010                       # Number of loads that had data forwarded from stores
system.switch_cpus3.lsq0.squashedLoads       54719192                       # Number of loads squashed
system.switch_cpus3.lsq0.ignoredResponses        64594                       # Number of memory responses ignored because the instruction is squashed
system.switch_cpus3.lsq0.memOrderViolation        40662                       # Number of memory ordering violations
system.switch_cpus3.lsq0.squashedStores      16089028                       # Number of stores squashed
system.switch_cpus3.lsq0.rescheduledLoads        40068                       # Number of loads that were rescheduled
system.switch_cpus3.lsq0.blockedByCache             8                       # Number of times an access to memory failed due to the cache being blocked
system.switch_cpus3.power_state.pwrStateResidencyTicks::OFF  77592663666                       # Cumulative time (in ticks) in various power states
system.switch_cpus3.rename.squashCycles       5214180                       # Number of cycles rename is squashing
system.switch_cpus3.rename.idleCycles        33583305                       # Number of cycles rename is idle
system.switch_cpus3.rename.blockCycles       43443874                       # Number of cycles rename is blocking
system.switch_cpus3.rename.serializeStallCycles            5                       # count of cycles rename stalledfor serializing inst
system.switch_cpus3.rename.runCycles        109687860                       # Number of cycles rename is running
system.switch_cpus3.rename.unblockCycles     40888410                       # Number of cycles rename is unblocking
system.switch_cpus3.rename.renamedInsts     849491099                       # Number of instructions processed by rename
system.switch_cpus3.rename.ROBFullEvents       379296                       # Number of times rename has blocked due to ROB full
system.switch_cpus3.rename.IQFullEvents      30887489                       # Number of times rename has blocked due to IQ full
system.switch_cpus3.rename.LQFullEvents       2310131                       # Number of times rename has blocked due to LQ full
system.switch_cpus3.rename.SQFullEvents       3458708                       # Number of times rename has blocked due to SQ full
system.switch_cpus3.rename.fullRegistersEvents            9                       # Number of times there has been no free registers
system.switch_cpus3.rename.renamedOperands   1066897635                       # Number of destination operands rename has renamed
system.switch_cpus3.rename.lookups         2186300893                       # Number of register rename lookups that rename has made
system.switch_cpus3.rename.intLookups      1365224176                       # Number of integer rename lookups
system.switch_cpus3.rename.fpLookups          2570221                       # Number of floating rename lookups
system.switch_cpus3.rename.committedMaps    585171287                       # Number of HB maps that are committed
system.switch_cpus3.rename.undoneMaps       481726282                       # Number of HB maps that are undone due to squashing
system.switch_cpus3.rename.serializing              1                       # count of serializing insts renamed
system.switch_cpus3.rename.tempSerializing            1                       # count of temporary serializing insts renamed
system.switch_cpus3.rename.skidInsts         95747991                       # count of insts added to the skid buffer
system.switch_cpus3.rob.reads               951269720                       # The number of ROB reads
system.switch_cpus3.rob.writes             1629410976                       # The number of ROB writes
system.switch_cpus3.thread0.numInsts        249995260                       # Number of Instructions committed
system.switch_cpus3.thread0.numOps          459839936                       # Number of Ops committed
system.switch_cpus3.thread0.numMemRefs              0                       # Number of Memory References
system.voltage_domain.voltage                       1                       # Voltage in Volts

---------- End Simulation Statistics   ----------
