
---------- Begin Simulation Statistics ----------
final_tick                               13761320291946                       # Number of ticks from beginning of simulation (restored from checkpoints and never reset)
host_inst_rate                                 112081                       # Simulator instruction rate (inst/s)
host_mem_usage                               17208448                       # Number of bytes of host memory used
host_op_rate                                   191971                       # Simulator op (including micro ops) rate (op/s)
host_seconds                                  3799.84                       # Real time elapsed on the host
host_tick_rate                               11123574                       # Simulator tick rate (ticks/s)
sim_freq                                 1000000000000                       # Frequency of simulated ticks
sim_insts                                   425887974                       # Number of instructions simulated
sim_ops                                     729459596                       # Number of ops (including micro ops) simulated
sim_seconds                                  0.042268                       # Number of seconds simulated
sim_ticks                                 42267753936                       # Number of ticks simulated
system.cpu0.committedInsts                         19                       # Number of instructions committed
system.cpu0.committedOps                           21                       # Number of ops (including micro ops) committed
system.cpu0.idle_fraction                           0                       # Percentage of idle cycles
system.cpu0.l2bus.snoop_filter.hit_multi_requests            0                       # Number of requests hitting in the snoop filter with multiple (>1) holders of the requested data.
system.cpu0.l2bus.snoop_filter.hit_multi_snoops            0                       # Number of snoops hitting in the snoop filter with multiple (>1) holders of the requested data.
system.cpu0.l2bus.snoop_filter.hit_single_requests      2997184                       # Number of requests hitting in the snoop filter with a single holder of the requested data.
system.cpu0.l2bus.snoop_filter.hit_single_snoops          241                       # Number of snoops hitting in the snoop filter with a single holder of the requested data.
system.cpu0.l2bus.snoop_filter.tot_requests      5994943                       # Total number of requests made to the snoop filter.
system.cpu0.l2bus.snoop_filter.tot_snoops          241                       # Total number of snoops made to the snoop filter.
system.cpu0.mmucache.mmubus.snoop_filter.hit_multi_requests            0                       # Number of requests hitting in the snoop filter with multiple (>1) holders of the requested data.
system.cpu0.mmucache.mmubus.snoop_filter.hit_multi_snoops            0                       # Number of snoops hitting in the snoop filter with multiple (>1) holders of the requested data.
system.cpu0.mmucache.mmubus.snoop_filter.hit_single_requests            0                       # Number of requests hitting in the snoop filter with a single holder of the requested data.
system.cpu0.mmucache.mmubus.snoop_filter.hit_single_snoops            0                       # Number of snoops hitting in the snoop filter with a single holder of the requested data.
system.cpu0.mmucache.mmubus.snoop_filter.tot_requests            0                       # Total number of requests made to the snoop filter.
system.cpu0.mmucache.mmubus.snoop_filter.tot_snoops            0                       # Total number of snoops made to the snoop filter.
system.cpu0.not_idle_fraction                       1                       # Percentage of non-idle cycles
system.cpu0.numCycles                              31                       # number of cpu cycles simulated
system.cpu0.numWorkItemsCompleted                   0                       # number of work items this cpu completed
system.cpu0.numWorkItemsStarted                     0                       # number of work items this cpu started
system.cpu0.num_busy_cycles                        31                       # Number of busy cycles
system.cpu0.num_conditional_control_insts            0                       # number of instructions that are conditional controls
system.cpu0.num_fp_alu_accesses                    20                       # Number of float alu accesses
system.cpu0.num_fp_insts                           20                       # number of float instructions
system.cpu0.num_fp_register_reads                  54                       # number of times the floating registers were read
system.cpu0.num_fp_register_writes                 20                       # number of times the floating registers were written
system.cpu0.num_func_calls                          0                       # number of times a function call or return occured
system.cpu0.num_idle_cycles                         0                       # Number of idle cycles
system.cpu0.num_int_alu_accesses                    2                       # Number of integer alu accesses
system.cpu0.num_int_insts                           2                       # number of integer instructions
system.cpu0.num_int_register_reads                  4                       # number of times the integer registers were read
system.cpu0.num_int_register_writes                 1                       # number of times the integer registers were written
system.cpu0.num_load_insts                          1                       # Number of load instructions
system.cpu0.num_mem_refs                            1                       # number of memory refs
system.cpu0.num_store_insts                         0                       # Number of store instructions
system.cpu0.num_vec_alu_accesses                    0                       # Number of vector alu accesses
system.cpu0.num_vec_insts                           0                       # number of vector instructions
system.cpu0.num_vec_register_reads                  0                       # number of times the vector registers were read
system.cpu0.num_vec_register_writes                 0                       # number of times the vector registers were written
system.cpu0.op_class::No_OpClass                    0      0.00%      0.00% # Class of executed instruction
system.cpu0.op_class::IntAlu                        4     19.05%     19.05% # Class of executed instruction
system.cpu0.op_class::IntMult                       0      0.00%     19.05% # Class of executed instruction
system.cpu0.op_class::IntDiv                        0      0.00%     19.05% # Class of executed instruction
system.cpu0.op_class::FloatAdd                      0      0.00%     19.05% # Class of executed instruction
system.cpu0.op_class::FloatCmp                      0      0.00%     19.05% # Class of executed instruction
system.cpu0.op_class::FloatCvt                      0      0.00%     19.05% # Class of executed instruction
system.cpu0.op_class::FloatMult                     0      0.00%     19.05% # Class of executed instruction
system.cpu0.op_class::FloatMultAcc                  0      0.00%     19.05% # Class of executed instruction
system.cpu0.op_class::FloatDiv                      0      0.00%     19.05% # Class of executed instruction
system.cpu0.op_class::FloatMisc                     0      0.00%     19.05% # Class of executed instruction
system.cpu0.op_class::FloatSqrt                     0      0.00%     19.05% # Class of executed instruction
system.cpu0.op_class::SimdAdd                       0      0.00%     19.05% # Class of executed instruction
system.cpu0.op_class::SimdAddAcc                    0      0.00%     19.05% # Class of executed instruction
system.cpu0.op_class::SimdAlu                       0      0.00%     19.05% # Class of executed instruction
system.cpu0.op_class::SimdCmp                       0      0.00%     19.05% # Class of executed instruction
system.cpu0.op_class::SimdCvt                       0      0.00%     19.05% # Class of executed instruction
system.cpu0.op_class::SimdMisc                      0      0.00%     19.05% # Class of executed instruction
system.cpu0.op_class::SimdMult                      0      0.00%     19.05% # Class of executed instruction
system.cpu0.op_class::SimdMultAcc                   0      0.00%     19.05% # Class of executed instruction
system.cpu0.op_class::SimdShift                     0      0.00%     19.05% # Class of executed instruction
system.cpu0.op_class::SimdShiftAcc                  0      0.00%     19.05% # Class of executed instruction
system.cpu0.op_class::SimdDiv                       0      0.00%     19.05% # Class of executed instruction
system.cpu0.op_class::SimdSqrt                      0      0.00%     19.05% # Class of executed instruction
system.cpu0.op_class::SimdFloatAdd                  7     33.33%     52.38% # Class of executed instruction
system.cpu0.op_class::SimdFloatAlu                  0      0.00%     52.38% # Class of executed instruction
system.cpu0.op_class::SimdFloatCmp                  0      0.00%     52.38% # Class of executed instruction
system.cpu0.op_class::SimdFloatCvt                  0      0.00%     52.38% # Class of executed instruction
system.cpu0.op_class::SimdFloatDiv                  0      0.00%     52.38% # Class of executed instruction
system.cpu0.op_class::SimdFloatMisc                 0      0.00%     52.38% # Class of executed instruction
system.cpu0.op_class::SimdFloatMult                 9     42.86%     95.24% # Class of executed instruction
system.cpu0.op_class::SimdFloatMultAcc              0      0.00%     95.24% # Class of executed instruction
system.cpu0.op_class::SimdFloatSqrt                 0      0.00%     95.24% # Class of executed instruction
system.cpu0.op_class::SimdReduceAdd                 0      0.00%     95.24% # Class of executed instruction
system.cpu0.op_class::SimdReduceAlu                 0      0.00%     95.24% # Class of executed instruction
system.cpu0.op_class::SimdReduceCmp                 0      0.00%     95.24% # Class of executed instruction
system.cpu0.op_class::SimdFloatReduceAdd            0      0.00%     95.24% # Class of executed instruction
system.cpu0.op_class::SimdFloatReduceCmp            0      0.00%     95.24% # Class of executed instruction
system.cpu0.op_class::SimdAes                       0      0.00%     95.24% # Class of executed instruction
system.cpu0.op_class::SimdAesMix                    0      0.00%     95.24% # Class of executed instruction
system.cpu0.op_class::SimdSha1Hash                  0      0.00%     95.24% # Class of executed instruction
system.cpu0.op_class::SimdSha1Hash2                 0      0.00%     95.24% # Class of executed instruction
system.cpu0.op_class::SimdSha256Hash                0      0.00%     95.24% # Class of executed instruction
system.cpu0.op_class::SimdSha256Hash2               0      0.00%     95.24% # Class of executed instruction
system.cpu0.op_class::SimdShaSigma2                 0      0.00%     95.24% # Class of executed instruction
system.cpu0.op_class::SimdShaSigma3                 0      0.00%     95.24% # Class of executed instruction
system.cpu0.op_class::SimdPredAlu                   0      0.00%     95.24% # Class of executed instruction
system.cpu0.op_class::MemRead                       0      0.00%     95.24% # Class of executed instruction
system.cpu0.op_class::MemWrite                      0      0.00%     95.24% # Class of executed instruction
system.cpu0.op_class::FloatMemRead                  1      4.76%    100.00% # Class of executed instruction
system.cpu0.op_class::FloatMemWrite                 0      0.00%    100.00% # Class of executed instruction
system.cpu0.op_class::IprAccess                     0      0.00%    100.00% # Class of executed instruction
system.cpu0.op_class::InstPrefetch                  0      0.00%    100.00% # Class of executed instruction
system.cpu0.op_class::total                        21                       # Class of executed instruction
system.cpu0.workload.numSyscalls                    0                       # Number of system calls
system.cpu1.Branches                                2                       # Number of branches fetched
system.cpu1.committedInsts                         12                       # Number of instructions committed
system.cpu1.committedOps                           27                       # Number of ops (including micro ops) committed
system.cpu1.idle_fraction                           0                       # Percentage of idle cycles
system.cpu1.l2bus.snoop_filter.hit_multi_requests          124                       # Number of requests hitting in the snoop filter with multiple (>1) holders of the requested data.
system.cpu1.l2bus.snoop_filter.hit_multi_snoops           48                       # Number of snoops hitting in the snoop filter with multiple (>1) holders of the requested data.
system.cpu1.l2bus.snoop_filter.hit_single_requests      1784522                       # Number of requests hitting in the snoop filter with a single holder of the requested data.
system.cpu1.l2bus.snoop_filter.hit_single_snoops          226                       # Number of snoops hitting in the snoop filter with a single holder of the requested data.
system.cpu1.l2bus.snoop_filter.tot_requests      3556748                       # Total number of requests made to the snoop filter.
system.cpu1.l2bus.snoop_filter.tot_snoops          274                       # Total number of snoops made to the snoop filter.
system.cpu1.mmucache.mmubus.snoop_filter.hit_multi_requests            0                       # Number of requests hitting in the snoop filter with multiple (>1) holders of the requested data.
system.cpu1.mmucache.mmubus.snoop_filter.hit_multi_snoops            0                       # Number of snoops hitting in the snoop filter with multiple (>1) holders of the requested data.
system.cpu1.mmucache.mmubus.snoop_filter.hit_single_requests            0                       # Number of requests hitting in the snoop filter with a single holder of the requested data.
system.cpu1.mmucache.mmubus.snoop_filter.hit_single_snoops            0                       # Number of snoops hitting in the snoop filter with a single holder of the requested data.
system.cpu1.mmucache.mmubus.snoop_filter.tot_requests            0                       # Total number of requests made to the snoop filter.
system.cpu1.mmucache.mmubus.snoop_filter.tot_snoops            0                       # Total number of snoops made to the snoop filter.
system.cpu1.not_idle_fraction                       1                       # Percentage of non-idle cycles
system.cpu1.numCycles                              30                       # number of cpu cycles simulated
system.cpu1.numWorkItemsCompleted                   0                       # number of work items this cpu completed
system.cpu1.numWorkItemsStarted                     0                       # number of work items this cpu started
system.cpu1.num_busy_cycles                        30                       # Number of busy cycles
system.cpu1.num_cc_register_reads                  13                       # number of times the CC registers were read
system.cpu1.num_cc_register_writes                 11                       # number of times the CC registers were written
system.cpu1.num_conditional_control_insts            2                       # number of instructions that are conditional controls
system.cpu1.num_fp_alu_accesses                     0                       # Number of float alu accesses
system.cpu1.num_fp_insts                            0                       # number of float instructions
system.cpu1.num_fp_register_reads                   0                       # number of times the floating registers were read
system.cpu1.num_fp_register_writes                  0                       # number of times the floating registers were written
system.cpu1.num_func_calls                          0                       # number of times a function call or return occured
system.cpu1.num_idle_cycles                         0                       # Number of idle cycles
system.cpu1.num_int_alu_accesses                   26                       # Number of integer alu accesses
system.cpu1.num_int_insts                          26                       # number of integer instructions
system.cpu1.num_int_register_reads                 69                       # number of times the integer registers were read
system.cpu1.num_int_register_writes                37                       # number of times the integer registers were written
system.cpu1.num_load_insts                          1                       # Number of load instructions
system.cpu1.num_mem_refs                            3                       # number of memory refs
system.cpu1.num_store_insts                         2                       # Number of store instructions
system.cpu1.num_vec_alu_accesses                    0                       # Number of vector alu accesses
system.cpu1.num_vec_insts                           0                       # number of vector instructions
system.cpu1.num_vec_register_reads                  0                       # number of times the vector registers were read
system.cpu1.num_vec_register_writes                 0                       # number of times the vector registers were written
system.cpu1.op_class::No_OpClass                    1      3.70%      3.70% # Class of executed instruction
system.cpu1.op_class::IntAlu                       16     59.26%     62.96% # Class of executed instruction
system.cpu1.op_class::IntMult                       0      0.00%     62.96% # Class of executed instruction
system.cpu1.op_class::IntDiv                        7     25.93%     88.89% # Class of executed instruction
system.cpu1.op_class::FloatAdd                      0      0.00%     88.89% # Class of executed instruction
system.cpu1.op_class::FloatCmp                      0      0.00%     88.89% # Class of executed instruction
system.cpu1.op_class::FloatCvt                      0      0.00%     88.89% # Class of executed instruction
system.cpu1.op_class::FloatMult                     0      0.00%     88.89% # Class of executed instruction
system.cpu1.op_class::FloatMultAcc                  0      0.00%     88.89% # Class of executed instruction
system.cpu1.op_class::FloatDiv                      0      0.00%     88.89% # Class of executed instruction
system.cpu1.op_class::FloatMisc                     0      0.00%     88.89% # Class of executed instruction
system.cpu1.op_class::FloatSqrt                     0      0.00%     88.89% # Class of executed instruction
system.cpu1.op_class::SimdAdd                       0      0.00%     88.89% # Class of executed instruction
system.cpu1.op_class::SimdAddAcc                    0      0.00%     88.89% # Class of executed instruction
system.cpu1.op_class::SimdAlu                       0      0.00%     88.89% # Class of executed instruction
system.cpu1.op_class::SimdCmp                       0      0.00%     88.89% # Class of executed instruction
system.cpu1.op_class::SimdCvt                       0      0.00%     88.89% # Class of executed instruction
system.cpu1.op_class::SimdMisc                      0      0.00%     88.89% # Class of executed instruction
system.cpu1.op_class::SimdMult                      0      0.00%     88.89% # Class of executed instruction
system.cpu1.op_class::SimdMultAcc                   0      0.00%     88.89% # Class of executed instruction
system.cpu1.op_class::SimdShift                     0      0.00%     88.89% # Class of executed instruction
system.cpu1.op_class::SimdShiftAcc                  0      0.00%     88.89% # Class of executed instruction
system.cpu1.op_class::SimdDiv                       0      0.00%     88.89% # Class of executed instruction
system.cpu1.op_class::SimdSqrt                      0      0.00%     88.89% # Class of executed instruction
system.cpu1.op_class::SimdFloatAdd                  0      0.00%     88.89% # Class of executed instruction
system.cpu1.op_class::SimdFloatAlu                  0      0.00%     88.89% # Class of executed instruction
system.cpu1.op_class::SimdFloatCmp                  0      0.00%     88.89% # Class of executed instruction
system.cpu1.op_class::SimdFloatCvt                  0      0.00%     88.89% # Class of executed instruction
system.cpu1.op_class::SimdFloatDiv                  0      0.00%     88.89% # Class of executed instruction
system.cpu1.op_class::SimdFloatMisc                 0      0.00%     88.89% # Class of executed instruction
system.cpu1.op_class::SimdFloatMult                 0      0.00%     88.89% # Class of executed instruction
system.cpu1.op_class::SimdFloatMultAcc              0      0.00%     88.89% # Class of executed instruction
system.cpu1.op_class::SimdFloatSqrt                 0      0.00%     88.89% # Class of executed instruction
system.cpu1.op_class::SimdReduceAdd                 0      0.00%     88.89% # Class of executed instruction
system.cpu1.op_class::SimdReduceAlu                 0      0.00%     88.89% # Class of executed instruction
system.cpu1.op_class::SimdReduceCmp                 0      0.00%     88.89% # Class of executed instruction
system.cpu1.op_class::SimdFloatReduceAdd            0      0.00%     88.89% # Class of executed instruction
system.cpu1.op_class::SimdFloatReduceCmp            0      0.00%     88.89% # Class of executed instruction
system.cpu1.op_class::SimdAes                       0      0.00%     88.89% # Class of executed instruction
system.cpu1.op_class::SimdAesMix                    0      0.00%     88.89% # Class of executed instruction
system.cpu1.op_class::SimdSha1Hash                  0      0.00%     88.89% # Class of executed instruction
system.cpu1.op_class::SimdSha1Hash2                 0      0.00%     88.89% # Class of executed instruction
system.cpu1.op_class::SimdSha256Hash                0      0.00%     88.89% # Class of executed instruction
system.cpu1.op_class::SimdSha256Hash2               0      0.00%     88.89% # Class of executed instruction
system.cpu1.op_class::SimdShaSigma2                 0      0.00%     88.89% # Class of executed instruction
system.cpu1.op_class::SimdShaSigma3                 0      0.00%     88.89% # Class of executed instruction
system.cpu1.op_class::SimdPredAlu                   0      0.00%     88.89% # Class of executed instruction
system.cpu1.op_class::MemRead                       1      3.70%     92.59% # Class of executed instruction
system.cpu1.op_class::MemWrite                      2      7.41%    100.00% # Class of executed instruction
system.cpu1.op_class::FloatMemRead                  0      0.00%    100.00% # Class of executed instruction
system.cpu1.op_class::FloatMemWrite                 0      0.00%    100.00% # Class of executed instruction
system.cpu1.op_class::IprAccess                     0      0.00%    100.00% # Class of executed instruction
system.cpu1.op_class::InstPrefetch                  0      0.00%    100.00% # Class of executed instruction
system.cpu1.op_class::total                        27                       # Class of executed instruction
system.cpu1.workload.numSyscalls                    0                       # Number of system calls
system.cpu2.Branches                                1                       # Number of branches fetched
system.cpu2.committedInsts                         11                       # Number of instructions committed
system.cpu2.committedOps                           25                       # Number of ops (including micro ops) committed
system.cpu2.idle_fraction                           0                       # Percentage of idle cycles
system.cpu2.l2bus.snoop_filter.hit_multi_requests            4                       # Number of requests hitting in the snoop filter with multiple (>1) holders of the requested data.
system.cpu2.l2bus.snoop_filter.hit_multi_snoops            0                       # Number of snoops hitting in the snoop filter with multiple (>1) holders of the requested data.
system.cpu2.l2bus.snoop_filter.hit_single_requests       599214                       # Number of requests hitting in the snoop filter with a single holder of the requested data.
system.cpu2.l2bus.snoop_filter.hit_single_snoops          804                       # Number of snoops hitting in the snoop filter with a single holder of the requested data.
system.cpu2.l2bus.snoop_filter.tot_requests      1198383                       # Total number of requests made to the snoop filter.
system.cpu2.l2bus.snoop_filter.tot_snoops          804                       # Total number of snoops made to the snoop filter.
system.cpu2.mmucache.mmubus.snoop_filter.hit_multi_requests            0                       # Number of requests hitting in the snoop filter with multiple (>1) holders of the requested data.
system.cpu2.mmucache.mmubus.snoop_filter.hit_multi_snoops            0                       # Number of snoops hitting in the snoop filter with multiple (>1) holders of the requested data.
system.cpu2.mmucache.mmubus.snoop_filter.hit_single_requests            0                       # Number of requests hitting in the snoop filter with a single holder of the requested data.
system.cpu2.mmucache.mmubus.snoop_filter.hit_single_snoops            0                       # Number of snoops hitting in the snoop filter with a single holder of the requested data.
system.cpu2.mmucache.mmubus.snoop_filter.tot_requests            0                       # Total number of requests made to the snoop filter.
system.cpu2.mmucache.mmubus.snoop_filter.tot_snoops            0                       # Total number of snoops made to the snoop filter.
system.cpu2.not_idle_fraction                       1                       # Percentage of non-idle cycles
system.cpu2.numCycles                              31                       # number of cpu cycles simulated
system.cpu2.numWorkItemsCompleted                   0                       # number of work items this cpu completed
system.cpu2.numWorkItemsStarted                     0                       # number of work items this cpu started
system.cpu2.num_busy_cycles                        31                       # Number of busy cycles
system.cpu2.num_cc_register_reads                   5                       # number of times the CC registers were read
system.cpu2.num_cc_register_writes                 10                       # number of times the CC registers were written
system.cpu2.num_conditional_control_insts            1                       # number of instructions that are conditional controls
system.cpu2.num_fp_alu_accesses                    12                       # Number of float alu accesses
system.cpu2.num_fp_insts                           12                       # number of float instructions
system.cpu2.num_fp_register_reads                   6                       # number of times the floating registers were read
system.cpu2.num_fp_register_writes                 12                       # number of times the floating registers were written
system.cpu2.num_func_calls                          0                       # number of times a function call or return occured
system.cpu2.num_idle_cycles                         0                       # Number of idle cycles
system.cpu2.num_int_alu_accesses                   17                       # Number of integer alu accesses
system.cpu2.num_int_insts                          17                       # number of integer instructions
system.cpu2.num_int_register_reads                 26                       # number of times the integer registers were read
system.cpu2.num_int_register_writes                12                       # number of times the integer registers were written
system.cpu2.num_load_insts                          4                       # Number of load instructions
system.cpu2.num_mem_refs                            4                       # number of memory refs
system.cpu2.num_store_insts                         0                       # Number of store instructions
system.cpu2.num_vec_alu_accesses                    0                       # Number of vector alu accesses
system.cpu2.num_vec_insts                           0                       # number of vector instructions
system.cpu2.num_vec_register_reads                  0                       # number of times the vector registers were read
system.cpu2.num_vec_register_writes                 0                       # number of times the vector registers were written
system.cpu2.op_class::No_OpClass                    0      0.00%      0.00% # Class of executed instruction
system.cpu2.op_class::IntAlu                       13     52.00%     52.00% # Class of executed instruction
system.cpu2.op_class::IntMult                       0      0.00%     52.00% # Class of executed instruction
system.cpu2.op_class::IntDiv                        0      0.00%     52.00% # Class of executed instruction
system.cpu2.op_class::FloatAdd                      6     24.00%     76.00% # Class of executed instruction
system.cpu2.op_class::FloatCmp                      0      0.00%     76.00% # Class of executed instruction
system.cpu2.op_class::FloatCvt                      0      0.00%     76.00% # Class of executed instruction
system.cpu2.op_class::FloatMult                     0      0.00%     76.00% # Class of executed instruction
system.cpu2.op_class::FloatMultAcc                  0      0.00%     76.00% # Class of executed instruction
system.cpu2.op_class::FloatDiv                      0      0.00%     76.00% # Class of executed instruction
system.cpu2.op_class::FloatMisc                     0      0.00%     76.00% # Class of executed instruction
system.cpu2.op_class::FloatSqrt                     0      0.00%     76.00% # Class of executed instruction
system.cpu2.op_class::SimdAdd                       0      0.00%     76.00% # Class of executed instruction
system.cpu2.op_class::SimdAddAcc                    0      0.00%     76.00% # Class of executed instruction
system.cpu2.op_class::SimdAlu                       0      0.00%     76.00% # Class of executed instruction
system.cpu2.op_class::SimdCmp                       0      0.00%     76.00% # Class of executed instruction
system.cpu2.op_class::SimdCvt                       0      0.00%     76.00% # Class of executed instruction
system.cpu2.op_class::SimdMisc                      0      0.00%     76.00% # Class of executed instruction
system.cpu2.op_class::SimdMult                      0      0.00%     76.00% # Class of executed instruction
system.cpu2.op_class::SimdMultAcc                   0      0.00%     76.00% # Class of executed instruction
system.cpu2.op_class::SimdShift                     0      0.00%     76.00% # Class of executed instruction
system.cpu2.op_class::SimdShiftAcc                  0      0.00%     76.00% # Class of executed instruction
system.cpu2.op_class::SimdDiv                       0      0.00%     76.00% # Class of executed instruction
system.cpu2.op_class::SimdSqrt                      0      0.00%     76.00% # Class of executed instruction
system.cpu2.op_class::SimdFloatAdd                  2      8.00%     84.00% # Class of executed instruction
system.cpu2.op_class::SimdFloatAlu                  0      0.00%     84.00% # Class of executed instruction
system.cpu2.op_class::SimdFloatCmp                  0      0.00%     84.00% # Class of executed instruction
system.cpu2.op_class::SimdFloatCvt                  0      0.00%     84.00% # Class of executed instruction
system.cpu2.op_class::SimdFloatDiv                  0      0.00%     84.00% # Class of executed instruction
system.cpu2.op_class::SimdFloatMisc                 0      0.00%     84.00% # Class of executed instruction
system.cpu2.op_class::SimdFloatMult                 0      0.00%     84.00% # Class of executed instruction
system.cpu2.op_class::SimdFloatMultAcc              0      0.00%     84.00% # Class of executed instruction
system.cpu2.op_class::SimdFloatSqrt                 0      0.00%     84.00% # Class of executed instruction
system.cpu2.op_class::SimdReduceAdd                 0      0.00%     84.00% # Class of executed instruction
system.cpu2.op_class::SimdReduceAlu                 0      0.00%     84.00% # Class of executed instruction
system.cpu2.op_class::SimdReduceCmp                 0      0.00%     84.00% # Class of executed instruction
system.cpu2.op_class::SimdFloatReduceAdd            0      0.00%     84.00% # Class of executed instruction
system.cpu2.op_class::SimdFloatReduceCmp            0      0.00%     84.00% # Class of executed instruction
system.cpu2.op_class::SimdAes                       0      0.00%     84.00% # Class of executed instruction
system.cpu2.op_class::SimdAesMix                    0      0.00%     84.00% # Class of executed instruction
system.cpu2.op_class::SimdSha1Hash                  0      0.00%     84.00% # Class of executed instruction
system.cpu2.op_class::SimdSha1Hash2                 0      0.00%     84.00% # Class of executed instruction
system.cpu2.op_class::SimdSha256Hash                0      0.00%     84.00% # Class of executed instruction
system.cpu2.op_class::SimdSha256Hash2               0      0.00%     84.00% # Class of executed instruction
system.cpu2.op_class::SimdShaSigma2                 0      0.00%     84.00% # Class of executed instruction
system.cpu2.op_class::SimdShaSigma3                 0      0.00%     84.00% # Class of executed instruction
system.cpu2.op_class::SimdPredAlu                   0      0.00%     84.00% # Class of executed instruction
system.cpu2.op_class::MemRead                       0      0.00%     84.00% # Class of executed instruction
system.cpu2.op_class::MemWrite                      0      0.00%     84.00% # Class of executed instruction
system.cpu2.op_class::FloatMemRead                  4     16.00%    100.00% # Class of executed instruction
system.cpu2.op_class::FloatMemWrite                 0      0.00%    100.00% # Class of executed instruction
system.cpu2.op_class::IprAccess                     0      0.00%    100.00% # Class of executed instruction
system.cpu2.op_class::InstPrefetch                  0      0.00%    100.00% # Class of executed instruction
system.cpu2.op_class::total                        25                       # Class of executed instruction
system.cpu2.workload.numSyscalls                    0                       # Number of system calls
system.cpu3.Branches                                3                       # Number of branches fetched
system.cpu3.committedInsts                         15                       # Number of instructions committed
system.cpu3.committedOps                           29                       # Number of ops (including micro ops) committed
system.cpu3.idle_fraction                           0                       # Percentage of idle cycles
system.cpu3.l2bus.snoop_filter.hit_multi_requests            3                       # Number of requests hitting in the snoop filter with multiple (>1) holders of the requested data.
system.cpu3.l2bus.snoop_filter.hit_multi_snoops            0                       # Number of snoops hitting in the snoop filter with multiple (>1) holders of the requested data.
system.cpu3.l2bus.snoop_filter.hit_single_requests        40461                       # Number of requests hitting in the snoop filter with a single holder of the requested data.
system.cpu3.l2bus.snoop_filter.hit_single_snoops            0                       # Number of snoops hitting in the snoop filter with a single holder of the requested data.
system.cpu3.l2bus.snoop_filter.tot_requests        81750                       # Total number of requests made to the snoop filter.
system.cpu3.l2bus.snoop_filter.tot_snoops            0                       # Total number of snoops made to the snoop filter.
system.cpu3.mmucache.mmubus.snoop_filter.hit_multi_requests            0                       # Number of requests hitting in the snoop filter with multiple (>1) holders of the requested data.
system.cpu3.mmucache.mmubus.snoop_filter.hit_multi_snoops            0                       # Number of snoops hitting in the snoop filter with multiple (>1) holders of the requested data.
system.cpu3.mmucache.mmubus.snoop_filter.hit_single_requests            0                       # Number of requests hitting in the snoop filter with a single holder of the requested data.
system.cpu3.mmucache.mmubus.snoop_filter.hit_single_snoops            0                       # Number of snoops hitting in the snoop filter with a single holder of the requested data.
system.cpu3.mmucache.mmubus.snoop_filter.tot_requests            0                       # Total number of requests made to the snoop filter.
system.cpu3.mmucache.mmubus.snoop_filter.tot_snoops            0                       # Total number of snoops made to the snoop filter.
system.cpu3.not_idle_fraction                       1                       # Percentage of non-idle cycles
system.cpu3.numCycles                              32                       # number of cpu cycles simulated
system.cpu3.numWorkItemsCompleted                   0                       # number of work items this cpu completed
system.cpu3.numWorkItemsStarted                     0                       # number of work items this cpu started
system.cpu3.num_busy_cycles                        32                       # Number of busy cycles
system.cpu3.num_cc_register_reads                  17                       # number of times the CC registers were read
system.cpu3.num_cc_register_writes                 16                       # number of times the CC registers were written
system.cpu3.num_conditional_control_insts            3                       # number of instructions that are conditional controls
system.cpu3.num_fp_alu_accesses                     0                       # Number of float alu accesses
system.cpu3.num_fp_insts                            0                       # number of float instructions
system.cpu3.num_fp_register_reads                   0                       # number of times the floating registers were read
system.cpu3.num_fp_register_writes                  0                       # number of times the floating registers were written
system.cpu3.num_func_calls                          0                       # number of times a function call or return occured
system.cpu3.num_idle_cycles                         0                       # Number of idle cycles
system.cpu3.num_int_alu_accesses                   29                       # Number of integer alu accesses
system.cpu3.num_int_insts                          29                       # number of integer instructions
system.cpu3.num_int_register_reads                 53                       # number of times the integer registers were read
system.cpu3.num_int_register_writes                25                       # number of times the integer registers were written
system.cpu3.num_load_insts                          7                       # Number of load instructions
system.cpu3.num_mem_refs                            8                       # number of memory refs
system.cpu3.num_store_insts                         1                       # Number of store instructions
system.cpu3.num_vec_alu_accesses                    0                       # Number of vector alu accesses
system.cpu3.num_vec_insts                           0                       # number of vector instructions
system.cpu3.num_vec_register_reads                  0                       # number of times the vector registers were read
system.cpu3.num_vec_register_writes                 0                       # number of times the vector registers were written
system.cpu3.op_class::No_OpClass                    0      0.00%      0.00% # Class of executed instruction
system.cpu3.op_class::IntAlu                       21     72.41%     72.41% # Class of executed instruction
system.cpu3.op_class::IntMult                       0      0.00%     72.41% # Class of executed instruction
system.cpu3.op_class::IntDiv                        0      0.00%     72.41% # Class of executed instruction
system.cpu3.op_class::FloatAdd                      0      0.00%     72.41% # Class of executed instruction
system.cpu3.op_class::FloatCmp                      0      0.00%     72.41% # Class of executed instruction
system.cpu3.op_class::FloatCvt                      0      0.00%     72.41% # Class of executed instruction
system.cpu3.op_class::FloatMult                     0      0.00%     72.41% # Class of executed instruction
system.cpu3.op_class::FloatMultAcc                  0      0.00%     72.41% # Class of executed instruction
system.cpu3.op_class::FloatDiv                      0      0.00%     72.41% # Class of executed instruction
system.cpu3.op_class::FloatMisc                     0      0.00%     72.41% # Class of executed instruction
system.cpu3.op_class::FloatSqrt                     0      0.00%     72.41% # Class of executed instruction
system.cpu3.op_class::SimdAdd                       0      0.00%     72.41% # Class of executed instruction
system.cpu3.op_class::SimdAddAcc                    0      0.00%     72.41% # Class of executed instruction
system.cpu3.op_class::SimdAlu                       0      0.00%     72.41% # Class of executed instruction
system.cpu3.op_class::SimdCmp                       0      0.00%     72.41% # Class of executed instruction
system.cpu3.op_class::SimdCvt                       0      0.00%     72.41% # Class of executed instruction
system.cpu3.op_class::SimdMisc                      0      0.00%     72.41% # Class of executed instruction
system.cpu3.op_class::SimdMult                      0      0.00%     72.41% # Class of executed instruction
system.cpu3.op_class::SimdMultAcc                   0      0.00%     72.41% # Class of executed instruction
system.cpu3.op_class::SimdShift                     0      0.00%     72.41% # Class of executed instruction
system.cpu3.op_class::SimdShiftAcc                  0      0.00%     72.41% # Class of executed instruction
system.cpu3.op_class::SimdDiv                       0      0.00%     72.41% # Class of executed instruction
system.cpu3.op_class::SimdSqrt                      0      0.00%     72.41% # Class of executed instruction
system.cpu3.op_class::SimdFloatAdd                  0      0.00%     72.41% # Class of executed instruction
system.cpu3.op_class::SimdFloatAlu                  0      0.00%     72.41% # Class of executed instruction
system.cpu3.op_class::SimdFloatCmp                  0      0.00%     72.41% # Class of executed instruction
system.cpu3.op_class::SimdFloatCvt                  0      0.00%     72.41% # Class of executed instruction
system.cpu3.op_class::SimdFloatDiv                  0      0.00%     72.41% # Class of executed instruction
system.cpu3.op_class::SimdFloatMisc                 0      0.00%     72.41% # Class of executed instruction
system.cpu3.op_class::SimdFloatMult                 0      0.00%     72.41% # Class of executed instruction
system.cpu3.op_class::SimdFloatMultAcc              0      0.00%     72.41% # Class of executed instruction
system.cpu3.op_class::SimdFloatSqrt                 0      0.00%     72.41% # Class of executed instruction
system.cpu3.op_class::SimdReduceAdd                 0      0.00%     72.41% # Class of executed instruction
system.cpu3.op_class::SimdReduceAlu                 0      0.00%     72.41% # Class of executed instruction
system.cpu3.op_class::SimdReduceCmp                 0      0.00%     72.41% # Class of executed instruction
system.cpu3.op_class::SimdFloatReduceAdd            0      0.00%     72.41% # Class of executed instruction
system.cpu3.op_class::SimdFloatReduceCmp            0      0.00%     72.41% # Class of executed instruction
system.cpu3.op_class::SimdAes                       0      0.00%     72.41% # Class of executed instruction
system.cpu3.op_class::SimdAesMix                    0      0.00%     72.41% # Class of executed instruction
system.cpu3.op_class::SimdSha1Hash                  0      0.00%     72.41% # Class of executed instruction
system.cpu3.op_class::SimdSha1Hash2                 0      0.00%     72.41% # Class of executed instruction
system.cpu3.op_class::SimdSha256Hash                0      0.00%     72.41% # Class of executed instruction
system.cpu3.op_class::SimdSha256Hash2               0      0.00%     72.41% # Class of executed instruction
system.cpu3.op_class::SimdShaSigma2                 0      0.00%     72.41% # Class of executed instruction
system.cpu3.op_class::SimdShaSigma3                 0      0.00%     72.41% # Class of executed instruction
system.cpu3.op_class::SimdPredAlu                   0      0.00%     72.41% # Class of executed instruction
system.cpu3.op_class::MemRead                       7     24.14%     96.55% # Class of executed instruction
system.cpu3.op_class::MemWrite                      1      3.45%    100.00% # Class of executed instruction
system.cpu3.op_class::FloatMemRead                  0      0.00%    100.00% # Class of executed instruction
system.cpu3.op_class::FloatMemWrite                 0      0.00%    100.00% # Class of executed instruction
system.cpu3.op_class::IprAccess                     0      0.00%    100.00% # Class of executed instruction
system.cpu3.op_class::InstPrefetch                  0      0.00%    100.00% # Class of executed instruction
system.cpu3.op_class::total                        29                       # Class of executed instruction
system.cpu3.workload.numSyscalls                    0                       # Number of system calls
system.l3bus.snoop_filter.hit_multi_requests            0                       # Number of requests hitting in the snoop filter with multiple (>1) holders of the requested data.
system.l3bus.snoop_filter.hit_multi_snoops            0                       # Number of snoops hitting in the snoop filter with multiple (>1) holders of the requested data.
system.l3bus.snoop_filter.hit_single_requests      3007779                       # Number of requests hitting in the snoop filter with a single holder of the requested data.
system.l3bus.snoop_filter.hit_single_snoops            0                       # Number of snoops hitting in the snoop filter with a single holder of the requested data.
system.l3bus.snoop_filter.tot_requests        6038104                       # Total number of requests made to the snoop filter.
system.l3bus.snoop_filter.tot_snoops                0                       # Total number of snoops made to the snoop filter.
system.membus.snoop_filter.hit_multi_requests            0                       # Number of requests hitting in the snoop filter with multiple (>1) holders of the requested data.
system.membus.snoop_filter.hit_multi_snoops            0                       # Number of snoops hitting in the snoop filter with multiple (>1) holders of the requested data.
system.membus.snoop_filter.hit_single_requests      2445765                       # Number of requests hitting in the snoop filter with a single holder of the requested data.
system.membus.snoop_filter.hit_single_snoops            0                       # Number of snoops hitting in the snoop filter with a single holder of the requested data.
system.membus.snoop_filter.tot_requests       4971284                       # Total number of requests made to the snoop filter.
system.membus.snoop_filter.tot_snoops               0                       # Total number of snoops made to the snoop filter.
system.switch_cpus0.cc_regfile_reads          3047324                       # number of cc regfile reads
system.switch_cpus0.cc_regfile_writes         1442131                       # number of cc regfile writes
system.switch_cpus0.committedInsts           84817886                       # Number of Instructions Simulated
system.switch_cpus0.committedOps             93244194                       # Number of Ops (including micro ops) Simulated
system.switch_cpus0.cpi                      1.496502                       # CPI: Cycles Per Instruction
system.switch_cpus0.cpi_total                1.496502                       # CPI: Total CPI of All Threads
system.switch_cpus0.fp_regfile_reads        155804172                       # number of floating regfile reads
system.switch_cpus0.fp_regfile_writes        70293719                       # number of floating regfile writes
system.switch_cpus0.idleCycles                   8838                       # Total number of cycles that the CPU has spent unscheduled due to idling
system.switch_cpus0.iew.branchMispredicts         1837                       # Number of branch mispredicts detected at execute
system.switch_cpus0.iew.exec_branches          537920                       # Number of branches executed
system.switch_cpus0.iew.exec_nop                    0                       # number of nop insts executed
system.switch_cpus0.iew.exec_rate            0.877368                       # Inst execution rate
system.switch_cpus0.iew.exec_refs            54703646                       # number of memory reference insts executed
system.switch_cpus0.iew.exec_stores          10433353                       # Number of stores executed
system.switch_cpus0.iew.exec_swp                    0                       # number of swp insts executed
system.switch_cpus0.iew.iewBlockCycles       26456490                       # Number of cycles IEW is blocking
system.switch_cpus0.iew.iewDispLoadInsts     26211459                       # Number of dispatched load instructions
system.switch_cpus0.iew.iewDispNonSpecInsts            0                       # Number of dispatched non-speculative instructions
system.switch_cpus0.iew.iewDispSquashedInsts          132                       # Number of squashed instructions skipped by dispatch
system.switch_cpus0.iew.iewDispStoreInsts     10449096                       # Number of dispatched store instructions
system.switch_cpus0.iew.iewDispatchedInsts     93328951                       # Number of instructions dispatched to IQ
system.switch_cpus0.iew.iewExecLoadInsts     44270293                       # Number of load instructions executed
system.switch_cpus0.iew.iewExecSquashedInsts          989                       # Number of squashed instructions skipped in execute
system.switch_cpus0.iew.iewExecutedInsts    111364441                       # Number of executed instructions
system.switch_cpus0.iew.iewIQFullEvents        238418                       # Number of times the IQ has become full, causing a stall
system.switch_cpus0.iew.iewIdleCycles               0                       # Number of cycles IEW is idle
system.switch_cpus0.iew.iewLSQFullEvents     21388162                       # Number of times the LSQ has become full, causing a stall
system.switch_cpus0.iew.iewSquashCycles          2184                       # Number of cycles IEW is squashing
system.switch_cpus0.iew.iewUnblockCycles     21663581                       # Number of cycles IEW is unblocking
system.switch_cpus0.iew.memOrderViolationEvents          708                       # Number of memory order violations
system.switch_cpus0.iew.predictedNotTakenIncorrect         1819                       # Number of branches that were predicted not taken incorrectly
system.switch_cpus0.iew.predictedTakenIncorrect           18                       # Number of branches that were predicted taken incorrectly
system.switch_cpus0.iew.wb_consumers        128445739                       # num instructions consuming a value
system.switch_cpus0.iew.wb_count             93285974                       # cumulative count of insts written-back
system.switch_cpus0.iew.wb_fanout            0.534319                       # average fanout of values written-back
system.switch_cpus0.iew.wb_producers         68631021                       # num instructions producing a value
system.switch_cpus0.iew.wb_rate              0.734939                       # insts written-back per cycle
system.switch_cpus0.iew.wb_sent              93286621                       # cumulative count of insts sent to commit
system.switch_cpus0.int_regfile_reads       121318586                       # number of integer regfile reads
system.switch_cpus0.int_regfile_writes       12021722                       # number of integer regfile writes
system.switch_cpus0.ipc                      0.668225                       # IPC: Instructions Per Cycle
system.switch_cpus0.ipc_total                0.668225                       # IPC: Total IPC of All Threads
system.switch_cpus0.iq.FU_type_0::No_OpClass            0      0.00%      0.00% # Type of FU issued
system.switch_cpus0.iq.FU_type_0::IntAlu     13555727     12.17%     12.17% # Type of FU issued
system.switch_cpus0.iq.FU_type_0::IntMult            0      0.00%     12.17% # Type of FU issued
system.switch_cpus0.iq.FU_type_0::IntDiv            0      0.00%     12.17% # Type of FU issued
system.switch_cpus0.iq.FU_type_0::FloatAdd            0      0.00%     12.17% # Type of FU issued
system.switch_cpus0.iq.FU_type_0::FloatCmp            0      0.00%     12.17% # Type of FU issued
system.switch_cpus0.iq.FU_type_0::FloatCvt            0      0.00%     12.17% # Type of FU issued
system.switch_cpus0.iq.FU_type_0::FloatMult            0      0.00%     12.17% # Type of FU issued
system.switch_cpus0.iq.FU_type_0::FloatMultAcc            0      0.00%     12.17% # Type of FU issued
system.switch_cpus0.iq.FU_type_0::FloatDiv            0      0.00%     12.17% # Type of FU issued
system.switch_cpus0.iq.FU_type_0::FloatMisc            0      0.00%     12.17% # Type of FU issued
system.switch_cpus0.iq.FU_type_0::FloatSqrt            0      0.00%     12.17% # Type of FU issued
system.switch_cpus0.iq.FU_type_0::SimdAdd            0      0.00%     12.17% # Type of FU issued
system.switch_cpus0.iq.FU_type_0::SimdAddAcc            0      0.00%     12.17% # Type of FU issued
system.switch_cpus0.iq.FU_type_0::SimdAlu           14      0.00%     12.17% # Type of FU issued
system.switch_cpus0.iq.FU_type_0::SimdCmp            0      0.00%     12.17% # Type of FU issued
system.switch_cpus0.iq.FU_type_0::SimdCvt            0      0.00%     12.17% # Type of FU issued
system.switch_cpus0.iq.FU_type_0::SimdMisc            0      0.00%     12.17% # Type of FU issued
system.switch_cpus0.iq.FU_type_0::SimdMult            0      0.00%     12.17% # Type of FU issued
system.switch_cpus0.iq.FU_type_0::SimdMultAcc            0      0.00%     12.17% # Type of FU issued
system.switch_cpus0.iq.FU_type_0::SimdShift            0      0.00%     12.17% # Type of FU issued
system.switch_cpus0.iq.FU_type_0::SimdShiftAcc            0      0.00%     12.17% # Type of FU issued
system.switch_cpus0.iq.FU_type_0::SimdDiv            0      0.00%     12.17% # Type of FU issued
system.switch_cpus0.iq.FU_type_0::SimdSqrt            0      0.00%     12.17% # Type of FU issued
system.switch_cpus0.iq.FU_type_0::SimdFloatAdd     26527174     23.82%     35.99% # Type of FU issued
system.switch_cpus0.iq.FU_type_0::SimdFloatAlu            0      0.00%     35.99% # Type of FU issued
system.switch_cpus0.iq.FU_type_0::SimdFloatCmp            0      0.00%     35.99% # Type of FU issued
system.switch_cpus0.iq.FU_type_0::SimdFloatCvt            0      0.00%     35.99% # Type of FU issued
system.switch_cpus0.iq.FU_type_0::SimdFloatDiv       523509      0.47%     36.46% # Type of FU issued
system.switch_cpus0.iq.FU_type_0::SimdFloatMisc            0      0.00%     36.46% # Type of FU issued
system.switch_cpus0.iq.FU_type_0::SimdFloatMult     16054419     14.42%     50.88% # Type of FU issued
system.switch_cpus0.iq.FU_type_0::SimdFloatMultAcc            0      0.00%     50.88% # Type of FU issued
system.switch_cpus0.iq.FU_type_0::SimdFloatSqrt            0      0.00%     50.88% # Type of FU issued
system.switch_cpus0.iq.FU_type_0::SimdReduceAdd            0      0.00%     50.88% # Type of FU issued
system.switch_cpus0.iq.FU_type_0::SimdReduceAlu            0      0.00%     50.88% # Type of FU issued
system.switch_cpus0.iq.FU_type_0::SimdReduceCmp            0      0.00%     50.88% # Type of FU issued
system.switch_cpus0.iq.FU_type_0::SimdFloatReduceAdd            0      0.00%     50.88% # Type of FU issued
system.switch_cpus0.iq.FU_type_0::SimdFloatReduceCmp            0      0.00%     50.88% # Type of FU issued
system.switch_cpus0.iq.FU_type_0::SimdAes            0      0.00%     50.88% # Type of FU issued
system.switch_cpus0.iq.FU_type_0::SimdAesMix            0      0.00%     50.88% # Type of FU issued
system.switch_cpus0.iq.FU_type_0::SimdSha1Hash            0      0.00%     50.88% # Type of FU issued
system.switch_cpus0.iq.FU_type_0::SimdSha1Hash2            0      0.00%     50.88% # Type of FU issued
system.switch_cpus0.iq.FU_type_0::SimdSha256Hash            0      0.00%     50.88% # Type of FU issued
system.switch_cpus0.iq.FU_type_0::SimdSha256Hash2            0      0.00%     50.88% # Type of FU issued
system.switch_cpus0.iq.FU_type_0::SimdShaSigma2            0      0.00%     50.88% # Type of FU issued
system.switch_cpus0.iq.FU_type_0::SimdShaSigma3            0      0.00%     50.88% # Type of FU issued
system.switch_cpus0.iq.FU_type_0::SimdPredAlu            0      0.00%     50.88% # Type of FU issued
system.switch_cpus0.iq.FU_type_0::MemRead     14965253     13.44%     64.32% # Type of FU issued
system.switch_cpus0.iq.FU_type_0::MemWrite            8      0.00%     64.32% # Type of FU issued
system.switch_cpus0.iq.FU_type_0::FloatMemRead     29305963     26.32%     90.63% # Type of FU issued
system.switch_cpus0.iq.FU_type_0::FloatMemWrite     10433363      9.37%    100.00% # Type of FU issued
system.switch_cpus0.iq.FU_type_0::IprAccess            0      0.00%    100.00% # Type of FU issued
system.switch_cpus0.iq.FU_type_0::InstPrefetch            0      0.00%    100.00% # Type of FU issued
system.switch_cpus0.iq.FU_type_0::total     111365430                       # Type of FU issued
system.switch_cpus0.iq.fp_alu_accesses      100679876                       # Number of floating point alu accesses
system.switch_cpus0.iq.fp_inst_queue_reads    191552406                       # Number of floating instruction queue reads
system.switch_cpus0.iq.fp_inst_queue_wakeup_accesses     80726787                       # Number of floating instruction queue wakeup accesses
system.switch_cpus0.iq.fp_inst_queue_writes     80816802                       # Number of floating instruction queue writes
system.switch_cpus0.iq.fu_busy_cnt           12621833                       # FU busy when requested
system.switch_cpus0.iq.fu_busy_rate          0.113337                       # FU busy rate (busy events/executed inst)
system.switch_cpus0.iq.fu_full::No_OpClass            0      0.00%      0.00% # attempts to use FU when none available
system.switch_cpus0.iq.fu_full::IntAlu         170742      1.35%      1.35% # attempts to use FU when none available
system.switch_cpus0.iq.fu_full::IntMult             0      0.00%      1.35% # attempts to use FU when none available
system.switch_cpus0.iq.fu_full::IntDiv              0      0.00%      1.35% # attempts to use FU when none available
system.switch_cpus0.iq.fu_full::FloatAdd            0      0.00%      1.35% # attempts to use FU when none available
system.switch_cpus0.iq.fu_full::FloatCmp            0      0.00%      1.35% # attempts to use FU when none available
system.switch_cpus0.iq.fu_full::FloatCvt            0      0.00%      1.35% # attempts to use FU when none available
system.switch_cpus0.iq.fu_full::FloatMult            0      0.00%      1.35% # attempts to use FU when none available
system.switch_cpus0.iq.fu_full::FloatMultAcc            0      0.00%      1.35% # attempts to use FU when none available
system.switch_cpus0.iq.fu_full::FloatDiv            0      0.00%      1.35% # attempts to use FU when none available
system.switch_cpus0.iq.fu_full::FloatMisc            0      0.00%      1.35% # attempts to use FU when none available
system.switch_cpus0.iq.fu_full::FloatSqrt            0      0.00%      1.35% # attempts to use FU when none available
system.switch_cpus0.iq.fu_full::SimdAdd             0      0.00%      1.35% # attempts to use FU when none available
system.switch_cpus0.iq.fu_full::SimdAddAcc            0      0.00%      1.35% # attempts to use FU when none available
system.switch_cpus0.iq.fu_full::SimdAlu             0      0.00%      1.35% # attempts to use FU when none available
system.switch_cpus0.iq.fu_full::SimdCmp             0      0.00%      1.35% # attempts to use FU when none available
system.switch_cpus0.iq.fu_full::SimdCvt             0      0.00%      1.35% # attempts to use FU when none available
system.switch_cpus0.iq.fu_full::SimdMisc            0      0.00%      1.35% # attempts to use FU when none available
system.switch_cpus0.iq.fu_full::SimdMult            0      0.00%      1.35% # attempts to use FU when none available
system.switch_cpus0.iq.fu_full::SimdMultAcc            0      0.00%      1.35% # attempts to use FU when none available
system.switch_cpus0.iq.fu_full::SimdShift            0      0.00%      1.35% # attempts to use FU when none available
system.switch_cpus0.iq.fu_full::SimdShiftAcc            0      0.00%      1.35% # attempts to use FU when none available
system.switch_cpus0.iq.fu_full::SimdDiv             0      0.00%      1.35% # attempts to use FU when none available
system.switch_cpus0.iq.fu_full::SimdSqrt            0      0.00%      1.35% # attempts to use FU when none available
system.switch_cpus0.iq.fu_full::SimdFloatAdd      2043517     16.19%     17.54% # attempts to use FU when none available
system.switch_cpus0.iq.fu_full::SimdFloatAlu            0      0.00%     17.54% # attempts to use FU when none available
system.switch_cpus0.iq.fu_full::SimdFloatCmp            0      0.00%     17.54% # attempts to use FU when none available
system.switch_cpus0.iq.fu_full::SimdFloatCvt            0      0.00%     17.54% # attempts to use FU when none available
system.switch_cpus0.iq.fu_full::SimdFloatDiv            0      0.00%     17.54% # attempts to use FU when none available
system.switch_cpus0.iq.fu_full::SimdFloatMisc            0      0.00%     17.54% # attempts to use FU when none available
system.switch_cpus0.iq.fu_full::SimdFloatMult      1702175     13.49%     31.03% # attempts to use FU when none available
system.switch_cpus0.iq.fu_full::SimdFloatMultAcc            0      0.00%     31.03% # attempts to use FU when none available
system.switch_cpus0.iq.fu_full::SimdFloatSqrt            0      0.00%     31.03% # attempts to use FU when none available
system.switch_cpus0.iq.fu_full::SimdReduceAdd            0      0.00%     31.03% # attempts to use FU when none available
system.switch_cpus0.iq.fu_full::SimdReduceAlu            0      0.00%     31.03% # attempts to use FU when none available
system.switch_cpus0.iq.fu_full::SimdReduceCmp            0      0.00%     31.03% # attempts to use FU when none available
system.switch_cpus0.iq.fu_full::SimdFloatReduceAdd            0      0.00%     31.03% # attempts to use FU when none available
system.switch_cpus0.iq.fu_full::SimdFloatReduceCmp            0      0.00%     31.03% # attempts to use FU when none available
system.switch_cpus0.iq.fu_full::SimdAes             0      0.00%     31.03% # attempts to use FU when none available
system.switch_cpus0.iq.fu_full::SimdAesMix            0      0.00%     31.03% # attempts to use FU when none available
system.switch_cpus0.iq.fu_full::SimdSha1Hash            0      0.00%     31.03% # attempts to use FU when none available
system.switch_cpus0.iq.fu_full::SimdSha1Hash2            0      0.00%     31.03% # attempts to use FU when none available
system.switch_cpus0.iq.fu_full::SimdSha256Hash            0      0.00%     31.03% # attempts to use FU when none available
system.switch_cpus0.iq.fu_full::SimdSha256Hash2            0      0.00%     31.03% # attempts to use FU when none available
system.switch_cpus0.iq.fu_full::SimdShaSigma2            0      0.00%     31.03% # attempts to use FU when none available
system.switch_cpus0.iq.fu_full::SimdShaSigma3            0      0.00%     31.03% # attempts to use FU when none available
system.switch_cpus0.iq.fu_full::SimdPredAlu            0      0.00%     31.03% # attempts to use FU when none available
system.switch_cpus0.iq.fu_full::MemRead       2814168     22.30%     53.33% # attempts to use FU when none available
system.switch_cpus0.iq.fu_full::MemWrite            0      0.00%     53.33% # attempts to use FU when none available
system.switch_cpus0.iq.fu_full::FloatMemRead      5168517     40.95%     94.27% # attempts to use FU when none available
system.switch_cpus0.iq.fu_full::FloatMemWrite       722714      5.73%    100.00% # attempts to use FU when none available
system.switch_cpus0.iq.fu_full::IprAccess            0      0.00%    100.00% # attempts to use FU when none available
system.switch_cpus0.iq.fu_full::InstPrefetch            0      0.00%    100.00% # attempts to use FU when none available
system.switch_cpus0.iq.int_alu_accesses      23307387                       # Number of integer alu accesses
system.switch_cpus0.iq.int_inst_queue_reads    170722447                       # Number of integer instruction queue reads
system.switch_cpus0.iq.int_inst_queue_wakeup_accesses     12559187                       # Number of integer instruction queue wakeup accesses
system.switch_cpus0.iq.int_inst_queue_writes     12597562                       # Number of integer instruction queue writes
system.switch_cpus0.iq.iqInstsAdded          93328951                       # Number of instructions added to the IQ (excludes non-spec)
system.switch_cpus0.iq.iqInstsIssued        111365430                       # Number of instructions issued
system.switch_cpus0.iq.iqSquashedInstsExamined        84705                       # Number of squashed instructions iterated over during squash; mainly for profiling
system.switch_cpus0.iq.iqSquashedInstsIssued          838                       # Number of squashed instructions issued
system.switch_cpus0.iq.iqSquashedOperandsExamined       144228                       # Number of squashed operands that are examined and possibly removed from graph
system.switch_cpus0.iq.issued_per_cycle::samples    126921322                       # Number of insts issued each cycle
system.switch_cpus0.iq.issued_per_cycle::mean     0.877437                       # Number of insts issued each cycle
system.switch_cpus0.iq.issued_per_cycle::stdev     1.991276                       # Number of insts issued each cycle
system.switch_cpus0.iq.issued_per_cycle::underflows            0      0.00%      0.00% # Number of insts issued each cycle
system.switch_cpus0.iq.issued_per_cycle::0    101728359     80.15%     80.15% # Number of insts issued each cycle
system.switch_cpus0.iq.issued_per_cycle::1      2691368      2.12%     82.27% # Number of insts issued each cycle
system.switch_cpus0.iq.issued_per_cycle::2      2737067      2.16%     84.43% # Number of insts issued each cycle
system.switch_cpus0.iq.issued_per_cycle::3      2253207      1.78%     86.20% # Number of insts issued each cycle
system.switch_cpus0.iq.issued_per_cycle::4      6022055      4.74%     90.95% # Number of insts issued each cycle
system.switch_cpus0.iq.issued_per_cycle::5      3828960      3.02%     93.96% # Number of insts issued each cycle
system.switch_cpus0.iq.issued_per_cycle::6      2927306      2.31%     96.27% # Number of insts issued each cycle
system.switch_cpus0.iq.issued_per_cycle::7      2220549      1.75%     98.02% # Number of insts issued each cycle
system.switch_cpus0.iq.issued_per_cycle::8      2512451      1.98%    100.00% # Number of insts issued each cycle
system.switch_cpus0.iq.issued_per_cycle::overflows            0      0.00%    100.00% # Number of insts issued each cycle
system.switch_cpus0.iq.issued_per_cycle::min_value            0                       # Number of insts issued each cycle
system.switch_cpus0.iq.issued_per_cycle::max_value            8                       # Number of insts issued each cycle
system.switch_cpus0.iq.issued_per_cycle::total    126921322                       # Number of insts issued each cycle
system.switch_cpus0.iq.rate                  0.877376                       # Inst issue rate
system.switch_cpus0.iq.vec_alu_accesses             0                       # Number of vector alu accesses
system.switch_cpus0.iq.vec_inst_queue_reads            0                       # Number of vector instruction queue reads
system.switch_cpus0.iq.vec_inst_queue_wakeup_accesses            0                       # Number of vector instruction queue wakeup accesses
system.switch_cpus0.iq.vec_inst_queue_writes            0                       # Number of vector instruction queue writes
system.switch_cpus0.memDep0.conflictingLoads       892444                       # Number of conflicting loads.
system.switch_cpus0.memDep0.conflictingStores       245619                       # Number of conflicting stores.
system.switch_cpus0.memDep0.insertedLoads     26211459                       # Number of loads inserted to the mem dependence unit.
system.switch_cpus0.memDep0.insertedStores     10449096                       # Number of stores inserted to the mem dependence unit.
system.switch_cpus0.misc_regfile_reads       57524855                       # number of misc regfile reads
system.switch_cpus0.misc_regfile_writes             1                       # number of misc regfile writes
system.switch_cpus0.numCycles               126930160                       # number of cpu cycles simulated
system.switch_cpus0.numWorkItemsCompleted            0                       # number of work items this cpu completed
system.switch_cpus0.numWorkItemsStarted             0                       # number of work items this cpu started
system.switch_cpus0.timesIdled                     39                       # Number of times that the entire CPU went into an idle state and unscheduled itself
system.switch_cpus1.cc_regfile_reads         81289181                       # number of cc regfile reads
system.switch_cpus1.cc_regfile_writes        33043758                       # number of cc regfile writes
system.switch_cpus1.committedInsts           53772382                       # Number of Instructions Simulated
system.switch_cpus1.committedOps             92653278                       # Number of Ops (including micro ops) Simulated
system.switch_cpus1.cpi                      2.360508                       # CPI: Cycles Per Instruction
system.switch_cpus1.cpi_total                2.360508                       # CPI: Total CPI of All Threads
system.switch_cpus1.fp_regfile_writes              56                       # number of floating regfile writes
system.switch_cpus1.idleCycles                  13751                       # Total number of cycles that the CPU has spent unscheduled due to idling
system.switch_cpus1.iew.branchMispredicts      1258855                       # Number of branch mispredicts detected at execute
system.switch_cpus1.iew.exec_branches        21488871                       # Number of branches executed
system.switch_cpus1.iew.exec_nop                    0                       # number of nop insts executed
system.switch_cpus1.iew.exec_rate            1.163521                       # Inst execution rate
system.switch_cpus1.iew.exec_refs            36697309                       # number of memory reference insts executed
system.switch_cpus1.iew.exec_stores           7649054                       # Number of stores executed
system.switch_cpus1.iew.exec_swp                    0                       # number of swp insts executed
system.switch_cpus1.iew.iewBlockCycles       69098510                       # Number of cycles IEW is blocking
system.switch_cpus1.iew.iewDispLoadInsts     33332384                       # Number of dispatched load instructions
system.switch_cpus1.iew.iewDispNonSpecInsts            0                       # Number of dispatched non-speculative instructions
system.switch_cpus1.iew.iewDispSquashedInsts        44905                       # Number of squashed instructions skipped by dispatch
system.switch_cpus1.iew.iewDispStoreInsts      8615242                       # Number of dispatched store instructions
system.switch_cpus1.iew.iewDispatchedInsts    168395950                       # Number of instructions dispatched to IQ
system.switch_cpus1.iew.iewExecLoadInsts     29048255                       # Number of load instructions executed
system.switch_cpus1.iew.iewExecSquashedInsts      3789811                       # Number of squashed instructions skipped in execute
system.switch_cpus1.iew.iewExecutedInsts    147685908                       # Number of executed instructions
system.switch_cpus1.iew.iewIQFullEvents        169677                       # Number of times the IQ has become full, causing a stall
system.switch_cpus1.iew.iewIdleCycles               0                       # Number of cycles IEW is idle
system.switch_cpus1.iew.iewLSQFullEvents      6209324                       # Number of times the LSQ has become full, causing a stall
system.switch_cpus1.iew.iewSquashCycles       1217317                       # Number of cycles IEW is squashing
system.switch_cpus1.iew.iewUnblockCycles      6525516                       # Number of cycles IEW is unblocking
system.switch_cpus1.iew.memOrderViolationEvents         3091                       # Number of memory order violations
system.switch_cpus1.iew.predictedNotTakenIncorrect       688587                       # Number of branches that were predicted not taken incorrectly
system.switch_cpus1.iew.predictedTakenIncorrect       570268                       # Number of branches that were predicted taken incorrectly
system.switch_cpus1.iew.wb_consumers        154254053                       # num instructions consuming a value
system.switch_cpus1.iew.wb_count            145910990                       # cumulative count of insts written-back
system.switch_cpus1.iew.wb_fanout            0.655331                       # average fanout of values written-back
system.switch_cpus1.iew.wb_producers        101087493                       # num instructions producing a value
system.switch_cpus1.iew.wb_rate              1.149538                       # insts written-back per cycle
system.switch_cpus1.iew.wb_sent             146908444                       # cumulative count of insts sent to commit
system.switch_cpus1.int_regfile_reads       211574280                       # number of integer regfile reads
system.switch_cpus1.int_regfile_writes      118622719                       # number of integer regfile writes
system.switch_cpus1.ipc                      0.423638                       # IPC: Instructions Per Cycle
system.switch_cpus1.ipc_total                0.423638                       # IPC: Total IPC of All Threads
system.switch_cpus1.iq.FU_type_0::No_OpClass        62554      0.04%      0.04% # Type of FU issued
system.switch_cpus1.iq.FU_type_0::IntAlu    112587433     74.33%     74.37% # Type of FU issued
system.switch_cpus1.iq.FU_type_0::IntMult       153734      0.10%     74.47% # Type of FU issued
system.switch_cpus1.iq.FU_type_0::IntDiv       388502      0.26%     74.73% # Type of FU issued
system.switch_cpus1.iq.FU_type_0::FloatAdd            0      0.00%     74.73% # Type of FU issued
system.switch_cpus1.iq.FU_type_0::FloatCmp            0      0.00%     74.73% # Type of FU issued
system.switch_cpus1.iq.FU_type_0::FloatCvt            0      0.00%     74.73% # Type of FU issued
system.switch_cpus1.iq.FU_type_0::FloatMult            0      0.00%     74.73% # Type of FU issued
system.switch_cpus1.iq.FU_type_0::FloatMultAcc            0      0.00%     74.73% # Type of FU issued
system.switch_cpus1.iq.FU_type_0::FloatDiv            0      0.00%     74.73% # Type of FU issued
system.switch_cpus1.iq.FU_type_0::FloatMisc            0      0.00%     74.73% # Type of FU issued
system.switch_cpus1.iq.FU_type_0::FloatSqrt            0      0.00%     74.73% # Type of FU issued
system.switch_cpus1.iq.FU_type_0::SimdAdd            0      0.00%     74.73% # Type of FU issued
system.switch_cpus1.iq.FU_type_0::SimdAddAcc            0      0.00%     74.73% # Type of FU issued
system.switch_cpus1.iq.FU_type_0::SimdAlu            0      0.00%     74.73% # Type of FU issued
system.switch_cpus1.iq.FU_type_0::SimdCmp            0      0.00%     74.73% # Type of FU issued
system.switch_cpus1.iq.FU_type_0::SimdCvt            0      0.00%     74.73% # Type of FU issued
system.switch_cpus1.iq.FU_type_0::SimdMisc            0      0.00%     74.73% # Type of FU issued
system.switch_cpus1.iq.FU_type_0::SimdMult            0      0.00%     74.73% # Type of FU issued
system.switch_cpus1.iq.FU_type_0::SimdMultAcc            0      0.00%     74.73% # Type of FU issued
system.switch_cpus1.iq.FU_type_0::SimdShift            0      0.00%     74.73% # Type of FU issued
system.switch_cpus1.iq.FU_type_0::SimdShiftAcc            0      0.00%     74.73% # Type of FU issued
system.switch_cpus1.iq.FU_type_0::SimdDiv            0      0.00%     74.73% # Type of FU issued
system.switch_cpus1.iq.FU_type_0::SimdSqrt            0      0.00%     74.73% # Type of FU issued
system.switch_cpus1.iq.FU_type_0::SimdFloatAdd            0      0.00%     74.73% # Type of FU issued
system.switch_cpus1.iq.FU_type_0::SimdFloatAlu            0      0.00%     74.73% # Type of FU issued
system.switch_cpus1.iq.FU_type_0::SimdFloatCmp            0      0.00%     74.73% # Type of FU issued
system.switch_cpus1.iq.FU_type_0::SimdFloatCvt            0      0.00%     74.73% # Type of FU issued
system.switch_cpus1.iq.FU_type_0::SimdFloatDiv            0      0.00%     74.73% # Type of FU issued
system.switch_cpus1.iq.FU_type_0::SimdFloatMisc            0      0.00%     74.73% # Type of FU issued
system.switch_cpus1.iq.FU_type_0::SimdFloatMult            0      0.00%     74.73% # Type of FU issued
system.switch_cpus1.iq.FU_type_0::SimdFloatMultAcc            0      0.00%     74.73% # Type of FU issued
system.switch_cpus1.iq.FU_type_0::SimdFloatSqrt            0      0.00%     74.73% # Type of FU issued
system.switch_cpus1.iq.FU_type_0::SimdReduceAdd            0      0.00%     74.73% # Type of FU issued
system.switch_cpus1.iq.FU_type_0::SimdReduceAlu            0      0.00%     74.73% # Type of FU issued
system.switch_cpus1.iq.FU_type_0::SimdReduceCmp            0      0.00%     74.73% # Type of FU issued
system.switch_cpus1.iq.FU_type_0::SimdFloatReduceAdd            0      0.00%     74.73% # Type of FU issued
system.switch_cpus1.iq.FU_type_0::SimdFloatReduceCmp            0      0.00%     74.73% # Type of FU issued
system.switch_cpus1.iq.FU_type_0::SimdAes            0      0.00%     74.73% # Type of FU issued
system.switch_cpus1.iq.FU_type_0::SimdAesMix            0      0.00%     74.73% # Type of FU issued
system.switch_cpus1.iq.FU_type_0::SimdSha1Hash            0      0.00%     74.73% # Type of FU issued
system.switch_cpus1.iq.FU_type_0::SimdSha1Hash2            0      0.00%     74.73% # Type of FU issued
system.switch_cpus1.iq.FU_type_0::SimdSha256Hash            0      0.00%     74.73% # Type of FU issued
system.switch_cpus1.iq.FU_type_0::SimdSha256Hash2            0      0.00%     74.73% # Type of FU issued
system.switch_cpus1.iq.FU_type_0::SimdShaSigma2            0      0.00%     74.73% # Type of FU issued
[...]
system.switch_cpus3.commit.numCommittedDist::stdev     3.231417                       # Number of insts commited each cycle
system.switch_cpus3.commit.numCommittedDist::underflows            0      0.00%      0.00% # Number of insts commited each cycle
system.switch_cpus3.commit.numCommittedDist::0     18742469     16.85%     16.85% # Number of insts commited each cycle
system.switch_cpus3.commit.numCommittedDist::1     17231147     15.49%     32.33% # Number of insts commited each cycle
system.switch_cpus3.commit.numCommittedDist::2      5625887      5.06%     37.39% # Number of insts commited each cycle
system.switch_cpus3.commit.numCommittedDist::3     11948742     10.74%     48.13% # Number of insts commited each cycle
system.switch_cpus3.commit.numCommittedDist::4      3984144      3.58%     51.71% # Number of insts commited each cycle
system.switch_cpus3.commit.numCommittedDist::5      5930382      5.33%     57.04% # Number of insts commited each cycle
system.switch_cpus3.commit.numCommittedDist::6      4710895      4.23%     61.28% # Number of insts commited each cycle
system.switch_cpus3.commit.numCommittedDist::7      4543985      4.08%     65.36% # Number of insts commited each cycle
system.switch_cpus3.commit.numCommittedDist::8     38537473     34.64%    100.00% # Number of insts commited each cycle
system.switch_cpus3.commit.numCommittedDist::overflows            0      0.00%    100.00% # Number of insts commited each cycle
system.switch_cpus3.commit.numCommittedDist::min_value            0                       # Number of insts commited each cycle
system.switch_cpus3.commit.numCommittedDist::max_value            8                       # Number of insts commited each cycle
system.switch_cpus3.commit.numCommittedDist::total    111255124                       # Number of insts commited each cycle
system.switch_cpus3.commit.instsCommitted    250000000                       # Number of instructions committed
system.switch_cpus3.commit.opsCommitted     478290682                       # Number of ops (including micro ops) committed
system.switch_cpus3.commit.memRefs          124129191                       # Number of memory references committed
system.switch_cpus3.commit.loads             87057745                       # Number of loads committed
system.switch_cpus3.commit.amos                     0                       # Number of atomic instructions committed
system.switch_cpus3.commit.membars                  0                       # Number of memory barriers committed
system.switch_cpus3.commit.branches          45560199                       # Number of branches committed
system.switch_cpus3.commit.vector                   0                       # Number of committed Vector instructions.
system.switch_cpus3.commit.floating            114136                       # Number of committed floating point instructions.
system.switch_cpus3.commit.integer          475927659                       # Number of committed integer instructions.
system.switch_cpus3.commit.functionCalls       139734                       # Number of function calls committed.
system.switch_cpus3.commit.committedInstType_0::No_OpClass       975197      0.20%      0.20% # Class of committed instruction
system.switch_cpus3.commit.committedInstType_0::IntAlu    348981739     72.96%     73.17% # Class of committed instruction
system.switch_cpus3.commit.committedInstType_0::IntMult      3980940      0.83%     74.00% # Class of committed instruction
system.switch_cpus3.commit.committedInstType_0::IntDiv       223615      0.05%     74.05% # Class of committed instruction
system.switch_cpus3.commit.committedInstType_0::FloatAdd            0      0.00%     74.05% # Class of committed instruction
system.switch_cpus3.commit.committedInstType_0::FloatCmp            0      0.00%     74.05% # Class of committed instruction
system.switch_cpus3.commit.committedInstType_0::FloatCvt            0      0.00%     74.05% # Class of committed instruction
system.switch_cpus3.commit.committedInstType_0::FloatMult            0      0.00%     74.05% # Class of committed instruction
system.switch_cpus3.commit.committedInstType_0::FloatMultAcc            0      0.00%     74.05% # Class of committed instruction
system.switch_cpus3.commit.committedInstType_0::FloatDiv            0      0.00%     74.05% # Class of committed instruction
system.switch_cpus3.commit.committedInstType_0::FloatMisc            0      0.00%     74.05% # Class of committed instruction
system.switch_cpus3.commit.committedInstType_0::FloatSqrt            0      0.00%     74.05% # Class of committed instruction
system.switch_cpus3.commit.committedInstType_0::SimdAdd            0      0.00%     74.05% # Class of committed instruction
system.switch_cpus3.commit.committedInstType_0::SimdAddAcc            0      0.00%     74.05% # Class of committed instruction
system.switch_cpus3.commit.committedInstType_0::SimdAlu            0      0.00%     74.05% # Class of committed instruction
system.switch_cpus3.commit.committedInstType_0::SimdCmp            0      0.00%     74.05% # Class of committed instruction
system.switch_cpus3.commit.committedInstType_0::SimdCvt            0      0.00%     74.05% # Class of committed instruction
system.switch_cpus3.commit.committedInstType_0::SimdMisc            0      0.00%     74.05% # Class of committed instruction
system.switch_cpus3.commit.committedInstType_0::SimdMult            0      0.00%     74.05% # Class of committed instruction
system.switch_cpus3.commit.committedInstType_0::SimdMultAcc            0      0.00%     74.05% # Class of committed instruction
system.switch_cpus3.commit.committedInstType_0::SimdShift            0      0.00%     74.05% # Class of committed instruction
system.switch_cpus3.commit.committedInstType_0::SimdShiftAcc            0      0.00%     74.05% # Class of committed instruction
system.switch_cpus3.commit.committedInstType_0::SimdDiv            0      0.00%     74.05% # Class of committed instruction
system.switch_cpus3.commit.committedInstType_0::SimdSqrt            0      0.00%     74.05% # Class of committed instruction
system.switch_cpus3.commit.committedInstType_0::SimdFloatAdd            0      0.00%     74.05% # Class of committed instruction
system.switch_cpus3.commit.committedInstType_0::SimdFloatAlu            0      0.00%     74.05% # Class of committed instruction
system.switch_cpus3.commit.committedInstType_0::SimdFloatCmp            0      0.00%     74.05% # Class of committed instruction
system.switch_cpus3.commit.committedInstType_0::SimdFloatCvt            0      0.00%     74.05% # Class of committed instruction
system.switch_cpus3.commit.committedInstType_0::SimdFloatDiv            0      0.00%     74.05% # Class of committed instruction
system.switch_cpus3.commit.committedInstType_0::SimdFloatMisc            0      0.00%     74.05% # Class of committed instruction
system.switch_cpus3.commit.committedInstType_0::SimdFloatMult            0      0.00%     74.05% # Class of committed instruction
system.switch_cpus3.commit.committedInstType_0::SimdFloatMultAcc            0      0.00%     74.05% # Class of committed instruction
system.switch_cpus3.commit.committedInstType_0::SimdFloatSqrt            0      0.00%     74.05% # Class of committed instruction
system.switch_cpus3.commit.committedInstType_0::SimdReduceAdd            0      0.00%     74.05% # Class of committed instruction
system.switch_cpus3.commit.committedInstType_0::SimdReduceAlu            0      0.00%     74.05% # Class of committed instruction
system.switch_cpus3.commit.committedInstType_0::SimdReduceCmp            0      0.00%     74.05% # Class of committed instruction
system.switch_cpus3.commit.committedInstType_0::SimdFloatReduceAdd            0      0.00%     74.05% # Class of committed instruction
system.switch_cpus3.commit.committedInstType_0::SimdFloatReduceCmp            0      0.00%     74.05% # Class of committed instruction
system.switch_cpus3.commit.committedInstType_0::SimdAes            0      0.00%     74.05% # Class of committed instruction
system.switch_cpus3.commit.committedInstType_0::SimdAesMix            0      0.00%     74.05% # Class of committed instruction
system.switch_cpus3.commit.committedInstType_0::SimdSha1Hash            0      0.00%     74.05% # Class of committed instruction
system.switch_cpus3.commit.committedInstType_0::SimdSha1Hash2            0      0.00%     74.05% # Class of committed instruction
system.switch_cpus3.commit.committedInstType_0::SimdSha256Hash            0      0.00%     74.05% # Class of committed instruction
system.switch_cpus3.commit.committedInstType_0::SimdSha256Hash2            0      0.00%     74.05% # Class of committed instruction
system.switch_cpus3.commit.committedInstType_0::SimdShaSigma2            0      0.00%     74.05% # Class of committed instruction
system.switch_cpus3.commit.committedInstType_0::SimdShaSigma3            0      0.00%     74.05% # Class of committed instruction
system.switch_cpus3.commit.committedInstType_0::SimdPredAlu            0      0.00%     74.05% # Class of committed instruction
system.switch_cpus3.commit.committedInstType_0::MemRead     87000761     18.19%     92.24% # Class of committed instruction
system.switch_cpus3.commit.committedInstType_0::MemWrite     37014294      7.74%     99.98% # Class of committed instruction
system.switch_cpus3.commit.committedInstType_0::FloatMemRead        56984      0.01%     99.99% # Class of committed instruction
system.switch_cpus3.commit.committedInstType_0::FloatMemWrite        57152      0.01%    100.00% # Class of committed instruction
system.switch_cpus3.commit.committedInstType_0::IprAccess            0      0.00%    100.00% # Class of committed instruction
system.switch_cpus3.commit.committedInstType_0::InstPrefetch            0      0.00%    100.00% # Class of committed instruction
system.switch_cpus3.commit.committedInstType_0::total    478290682                       # Class of committed instruction
system.switch_cpus3.commit.commitEligibleSamples     38537473                       # number cycles where commit BW limit reached
system.switch_cpus3.decode.idleCycles         9664967                       # Number of cycles decode is idle
system.switch_cpus3.decode.blockedCycles     22176451                       # Number of cycles decode is blocked
system.switch_cpus3.decode.runCycles         84032986                       # Number of cycles decode is running
system.switch_cpus3.decode.unblockCycles      8457070                       # Number of cycles decode is unblocking
system.switch_cpus3.decode.squashCycles       1900210                       # Number of cycles decode is squashing
system.switch_cpus3.decode.branchResolved     34292765                       # Number of times decode resolved a  branch
system.switch_cpus3.decode.branchMispred       109351                       # Number of times decode detected a branch misprediction
system.switch_cpus3.decode.decodedInsts     622482023                       # Number of instructions handled by decode
system.switch_cpus3.decode.squashedInsts       444306                       # Number of squashed instructions handled by decode
system.switch_cpus3.dtb.rdAccesses          104584660                       # TLB accesses on read requests
system.switch_cpus3.dtb.wrAccesses           39859954                       # TLB accesses on write requests
system.switch_cpus3.dtb.rdMisses                   93                       # TLB misses on read requests
system.switch_cpus3.dtb.wrMisses                    3                       # TLB misses on write requests
system.switch_cpus3.dtb.walker.power_state.pwrStateResidencyTicks::UNDEFINED 13761320291946                       # Cumulative time (in ticks) in various power states
system.switch_cpus3.fetch.icacheStallCycles      2202190                       # Number of cycles fetch is stalled on an Icache miss
system.switch_cpus3.fetch.insts             338877519                       # Number of instructions fetch has processed
system.switch_cpus3.fetch.branches           61403154                       # Number of branches that fetch encountered
system.switch_cpus3.fetch.predictedBranches     36031199                       # Number of branches that fetch has predicted taken
system.switch_cpus3.fetch.cycles            122022456                       # Number of cycles fetch has run and was not squashing or blocked
system.switch_cpus3.fetch.squashCycles        4014088                       # Number of cycles fetch has spent squashing
system.switch_cpus3.fetch.cacheLines         45365985                       # Number of cache lines fetched
system.switch_cpus3.fetch.icacheSquashes        15138                       # Number of outstanding Icache misses that were squashed
system.switch_cpus3.fetch.nisnDist::samples    126231690                       # Number of instructions fetched each cycle (Total)
system.switch_cpus3.fetch.nisnDist::mean     5.143419                       # Number of instructions fetched each cycle (Total)
system.switch_cpus3.fetch.nisnDist::stdev     3.086805                       # Number of instructions fetched each cycle (Total)
system.switch_cpus3.fetch.nisnDist::underflows            0      0.00%      0.00% # Number of instructions fetched each cycle (Total)
system.switch_cpus3.fetch.nisnDist::0        17914155     14.19%     14.19% # Number of instructions fetched each cycle (Total)
system.switch_cpus3.fetch.nisnDist::1         8695400      6.89%     21.08% # Number of instructions fetched each cycle (Total)
system.switch_cpus3.fetch.nisnDist::2         4749452      3.76%     24.84% # Number of instructions fetched each cycle (Total)
system.switch_cpus3.fetch.nisnDist::3        10902004      8.64%     33.48% # Number of instructions fetched each cycle (Total)
system.switch_cpus3.fetch.nisnDist::4         6913835      5.48%     38.96% # Number of instructions fetched each cycle (Total)
system.switch_cpus3.fetch.nisnDist::5         7767403      6.15%     45.11% # Number of instructions fetched each cycle (Total)
system.switch_cpus3.fetch.nisnDist::6         6877310      5.45%     50.56% # Number of instructions fetched each cycle (Total)
system.switch_cpus3.fetch.nisnDist::7         8691154      6.89%     57.44% # Number of instructions fetched each cycle (Total)
system.switch_cpus3.fetch.nisnDist::8        53720977     42.56%    100.00% # Number of instructions fetched each cycle (Total)
system.switch_cpus3.fetch.nisnDist::overflows            0      0.00%    100.00% # Number of instructions fetched each cycle (Total)
system.switch_cpus3.fetch.nisnDist::min_value            0                       # Number of instructions fetched each cycle (Total)
system.switch_cpus3.fetch.nisnDist::max_value            8                       # Number of instructions fetched each cycle (Total)
system.switch_cpus3.fetch.nisnDist::total    126231690                       # Number of instructions fetched each cycle (Total)
system.switch_cpus3.fetch.branchRate         0.483755                       # Number of branch fetches per cycle
system.switch_cpus3.fetch.rate               2.669795                       # Number of inst fetches per cycle
system.switch_cpus3.itb.rdAccesses                  0                       # TLB accesses on read requests
system.switch_cpus3.itb.wrAccesses           45365985                       # TLB accesses on write requests
system.switch_cpus3.itb.rdMisses                    0                       # TLB misses on read requests
system.switch_cpus3.itb.wrMisses                   33                       # TLB misses on write requests
system.switch_cpus3.itb.walker.power_state.pwrStateResidencyTicks::UNDEFINED 13761320291946                       # Cumulative time (in ticks) in various power states
system.switch_cpus3.lsq0.forwLoads           11557356                       # Number of loads that had data forwarded from stores
system.switch_cpus3.lsq0.squashedLoads       25040123                       # Number of loads squashed
system.switch_cpus3.lsq0.ignoredResponses         3173                       # Number of memory responses ignored because the instruction is squashed
system.switch_cpus3.lsq0.memOrderViolation        46243                       # Number of memory ordering violations
system.switch_cpus3.lsq0.squashedStores       8066152                       # Number of stores squashed
system.switch_cpus3.lsq0.rescheduledLoads           30                       # Number of loads that were rescheduled
system.switch_cpus3.lsq0.blockedByCache             0                       # Number of times an access to memory failed due to the cache being blocked
system.switch_cpus3.power_state.pwrStateResidencyTicks::OFF  42267753936                       # Cumulative time (in ticks) in various power states
system.switch_cpus3.rename.squashCycles       1900210                       # Number of cycles rename is squashing
system.switch_cpus3.rename.idleCycles        13633226                       # Number of cycles rename is idle
system.switch_cpus3.rename.blockCycles       13116738                       # Number of cycles rename is blocking
system.switch_cpus3.rename.serializeStallCycles            0                       # count of cycles rename stalledfor serializing inst
system.switch_cpus3.rename.runCycles         88253187                       # Number of cycles rename is running
system.switch_cpus3.rename.unblockCycles      9328323                       # Number of cycles rename is unblocking
system.switch_cpus3.rename.renamedInsts     610820409                       # Number of instructions processed by rename
system.switch_cpus3.rename.ROBFullEvents        41394                       # Number of times rename has blocked due to ROB full
system.switch_cpus3.rename.IQFullEvents       2452440                       # Number of times rename has blocked due to IQ full
system.switch_cpus3.rename.LQFullEvents       5047314                       # Number of times rename has blocked due to LQ full
system.switch_cpus3.rename.SQFullEvents         63245                       # Number of times rename has blocked due to SQ full
system.switch_cpus3.rename.renamedOperands    788670259                       # Number of destination operands rename has renamed
system.switch_cpus3.rename.lookups         1499447329                       # Number of register rename lookups that rename has made
system.switch_cpus3.rename.intLookups       905492364                       # Number of integer rename lookups
system.switch_cpus3.rename.fpLookups            59272                       # Number of floating rename lookups
system.switch_cpus3.rename.committedMaps    616822803                       # Number of HB maps that are committed
system.switch_cpus3.rename.undoneMaps       171847315                       # Number of HB maps that are undone due to squashing
system.switch_cpus3.rename.serializing              0                       # count of serializing insts renamed
system.switch_cpus3.rename.tempSerializing            0                       # count of temporary serializing insts renamed
system.switch_cpus3.rename.skidInsts         29213301                       # count of insts added to the skid buffer
system.switch_cpus3.rob.reads               662700615                       # The number of ROB reads
system.switch_cpus3.rob.writes             1194975333                       # The number of ROB writes
system.switch_cpus3.thread0.numInsts        250000000                       # Number of Instructions committed
system.switch_cpus3.thread0.numOps          478290682                       # Number of Ops committed
system.switch_cpus3.thread0.numMemRefs              0                       # Number of Memory References
system.voltage_domain.voltage                       1                       # Voltage in Volts

---------- End Simulation Statistics   ----------
