Command line:
./runscript_pride.sh nab RFM2.BR1.4C 4 2017 --rh_defense --rh_mitigation=RFM --rh_rfm_per_trefi=2 --rh_rfm_blast_radius=1 --rh_rfm_maxacts_per_trefi=79
Global frequency set at 1000000000000 ticks per second
RFM details - rfm_act_threshold: 39, blast_radius: 1, delay_per_rfm: 175000 ps. sample_rate: 0.025000
RH Defense config: RFM, Bus Delay: 0, rfms_per_trefi: 2, rfm_act_threshold: 39, blast_radius: 1,rfm_delay_per_act: 45000 ps.
DRAM config: RowsPerBank: 65536, BanksPerRank: 32, RanksPerChannel: 1
warn: Sockets disabled, not accepting gdb connections
warn: CoherentXBar system.cpu0.mmucache.mmubus has no snooping ports attached!
warn: CoherentXBar system.cpu1.mmucache.mmubus has no snooping ports attached!
warn: CoherentXBar system.cpu2.mmucache.mmubus has no snooping ports attached!
warn: CoherentXBar system.cpu3.mmucache.mmubus has no snooping ports attached!
warn: Checkpoints for file descriptors currently do not work.
warn: Checkpoints for file descriptors currently do not work.
warn: Checkpoints for file descriptors currently do not work.
warn: Checkpoints for file descriptors currently do not work.
gem5 Simulator System.  http://gem5.org
gem5 is copyrighted software; use the --copyright option for details.

gem5 version 20.1.0.5
gem5 compiled Jul 12 2024 12:42:38
gem5 started Jul 31 2024 15:38:00
gem5 executing on a07dda8b130c, pid 239159
command line: /home/user/PrIDE/performance/gem5/build/X86/gem5.opt --outdir=/home/user/PrIDE/performance/gem5/stats/pride_multiprogram_16GBmem_250Mn.SPEC2017.C4/RFM2.BR1.4C/nab /home/user/PrIDE/performance/gem5/configs/example/se_rq_spec_config_multicore.py --redirects /lib64=/home/utils/gcc-6.2.0/lib64 --benchmark=nab --benchmark_stdout=/home/user/PrIDE/performance/gem5/stats/pride_multiprogram_16GBmem_250Mn.SPEC2017.C4/RFM2.BR1.4C/nab/nab.out --benchmark_stderr=/home/user/PrIDE/performance/gem5/stats/pride_multiprogram_16GBmem_250Mn.SPEC2017.C4/RFM2.BR1.4C/nab/nab.err --spec-version=2017 --rh_defense --rh_mitigation=RFM --rh_rfm_per_trefi=2 --rh_rfm_blast_radius=1 --rh_rfm_maxacts_per_trefi=79 --num-cpus=4 --mem-size=16GB --mem-type=DDR5_2400_32x4 --mem-ranks=1 --mem-channels=1 --checkpoint-dir=/home/user/PrIDE/performance/gem5/cpts-DDR5/multiprogram_16GBmem_25Bn.SPEC2017.C4/nab-1-ref-x86 --checkpoint-restore=25000000000 --at-instruction --cpu-type DerivO3CPU --caches --l2cache --l1d_size=32kB --l1i_size=32kB --l2_size=256kB --l3_size=4MB --l1d_assoc=8 --l1i_assoc=8 --l2_assoc=16 --l3_assoc=16 --cpu-clock=3GHz --sys-clock=3GHz --maxinsts=250000000 --prog-interval=300Hz

info: Standard input is not a terminal, disabling listeners.
Benchmark- 0   nab
Selected benchmark
--> nab
CMD: ['/opt/spec2017/benchspec/CPU/544.nab_r/run/run_base_refrate_gem5_se-m64.0000/nab_r_base.gem5_se-m64', '1am0', '1122214447', '122']
CWD: /opt/spec2017/benchspec/CPU/544.nab_r/run/run_base_refrate_gem5_se-m64.0000/
Process stdout file: /home/user/PrIDE/performance/gem5/stats/pride_multiprogram_16GBmem_250Mn.SPEC2017.C4/RFM2.BR1.4C/nab/nab.out_0
Process stderr file: /home/user/PrIDE/performance/gem5/stats/pride_multiprogram_16GBmem_250Mn.SPEC2017.C4/RFM2.BR1.4C/nab/nab.err_0
Benchmark- 1   nab
Selected benchmark
--> nab
CMD: ['/opt/spec2017/benchspec/CPU/544.nab_r/run/run_base_refrate_gem5_se-m64.0000/nab_r_base.gem5_se-m64', '1am0', '1122214447', '122']
CWD: /opt/spec2017/benchspec/CPU/544.nab_r/run/run_base_refrate_gem5_se-m64.0000/
Process stdout file: /home/user/PrIDE/performance/gem5/stats/pride_multiprogram_16GBmem_250Mn.SPEC2017.C4/RFM2.BR1.4C/nab/nab.out_1
Process stderr file: /home/user/PrIDE/performance/gem5/stats/pride_multiprogram_16GBmem_250Mn.SPEC2017.C4/RFM2.BR1.4C/nab/nab.err_1
Benchmark- 2   nab
Selected benchmark
--> nab
CMD: ['/opt/spec2017/benchspec/CPU/544.nab_r/run/run_base_refrate_gem5_se-m64.0000/nab_r_base.gem5_se-m64', '1am0', '1122214447', '122']
CWD: /opt/spec2017/benchspec/CPU/544.nab_r/run/run_base_refrate_gem5_se-m64.0000/
Process stdout file: /home/user/PrIDE/performance/gem5/stats/pride_multiprogram_16GBmem_250Mn.SPEC2017.C4/RFM2.BR1.4C/nab/nab.out_2
Process stderr file: /home/user/PrIDE/performance/gem5/stats/pride_multiprogram_16GBmem_250Mn.SPEC2017.C4/RFM2.BR1.4C/nab/nab.err_2
Benchmark- 3   nab
Selected benchmark
--> nab
CMD: ['/opt/spec2017/benchspec/CPU/544.nab_r/run/run_base_refrate_gem5_se-m64.0000/nab_r_base.gem5_se-m64', '1am0', '1122214447', '122']
CWD: /opt/spec2017/benchspec/CPU/544.nab_r/run/run_base_refrate_gem5_se-m64.0000/
Process stdout file: /home/user/PrIDE/performance/gem5/stats/pride_multiprogram_16GBmem_250Mn.SPEC2017.C4/RFM2.BR1.4C/nab/nab.out_3
Process stderr file: /home/user/PrIDE/performance/gem5/stats/pride_multiprogram_16GBmem_250Mn.SPEC2017.C4/RFM2.BR1.4C/nab/nab.err_3
Workload-0: 
['/opt/spec2017/benchspec/CPU/544.nab_r/run/run_base_refrate_gem5_se-m64.0000/nab_r_base.gem5_se-m64', '1am0', '1122214447', '122']
Workload-1: 
['/opt/spec2017/benchspec/CPU/544.nab_r/run/run_base_refrate_gem5_se-m64.0000/nab_r_base.gem5_se-m64', '1am0', '1122214447', '122']
Workload-2: 
['/opt/spec2017/benchspec/CPU/544.nab_r/run/run_base_refrate_gem5_se-m64.0000/nab_r_base.gem5_se-m64', '1am0', '1122214447', '122']
Workload-3: 
['/opt/spec2017/benchspec/CPU/544.nab_r/run/run_base_refrate_gem5_se-m64.0000/nab_r_base.gem5_se-m64', '1am0', '1122214447', '122']
defense_enable:  True  detector:  MG  mitigation:  RFM  threshold:  800
mg_entries:  1700
rfm_maxacts_per_trefi:  79 rfm_per_trefi:  2 rfm_blast_radius:  1
Switch at curTick count:10000
warn: membus.master is deprecated. `master` is now called `mem_side_ports`
warn: No dot file generated. Please install pydot to generate the dot file and pdf.
info: Entering event queue @ 16891902834354.  Starting simulation...
warn: PowerState: Already in the requested power state, request ignored
Switched CPUS @ tick 16891902844354
switching cpus
**** REAL SIMULATION ****
info: Entering event queue @ 16891902844354.  Starting simulation...
16895236167687: Event_285: system.switch_cpus3 progress event, total committed:26616857, progress insts committed: 26616857, IPC: 02.65902
16895236167687: Event_284: system.switch_cpus2 progress event, total committed:26620732, progress insts committed: 26620732, IPC: 02.65941
16895236167687: Event_283: system.switch_cpus1 progress event, total committed:26616563, progress insts committed: 26616563, IPC: 02.65899
16895236167687: Event_282: system.switch_cpus0 progress event, total committed:26616987, progress insts committed: 26616987, IPC: 02.65904
16898569501020: Event_282: system.switch_cpus0 progress event, total committed:49283399, progress insts committed: 22666412, IPC: 02.26437
16898569501020: Event_283: system.switch_cpus1 progress event, total committed:49188473, progress insts committed: 22571910, IPC: 02.25493
16898569501020: Event_284: system.switch_cpus2 progress event, total committed:49238329, progress insts committed: 22617597, IPC: 002.2595
16898569501020: Event_285: system.switch_cpus3 progress event, total committed:49218897, progress insts committed: 22602040, IPC: 02.25794
16901902834353: Event_285: system.switch_cpus3 progress event, total committed:78453571, progress insts committed: 29234674, IPC: 02.92054
16901902834353: Event_284: system.switch_cpus2 progress event, total committed:78522857, progress insts committed: 29284528, IPC: 02.92552
16901902834353: Event_283: system.switch_cpus1 progress event, total committed:78420908, progress insts committed: 29232435, IPC: 02.92032
16901902834353: Event_282: system.switch_cpus0 progress event, total committed:78556146, progress insts committed: 29272747, IPC: 02.92435
16905236167686: Event_282: system.switch_cpus0 progress event, total committed:103554215, progress insts committed: 24998069, IPC: 02.49731
16905236167686: Event_283: system.switch_cpus1 progress event, total committed:103412769, progress insts committed: 24991861, IPC: 02.49669
16905236167686: Event_284: system.switch_cpus2 progress event, total committed:103502814, progress insts committed: 24979957, IPC: 002.4955
16905236167686: Event_285: system.switch_cpus3 progress event, total committed:103412756, progress insts committed: 24959185, IPC: 02.49342
16908569501019: Event_285: system.switch_cpus3 progress event, total committed:128606149, progress insts committed: 25193393, IPC: 02.51682
16908569501019: Event_284: system.switch_cpus2 progress event, total committed:128711225, progress insts committed: 25208411, IPC: 02.51832
16908569501019: Event_283: system.switch_cpus1 progress event, total committed:128567817, progress insts committed: 25155048, IPC: 02.51299
16908569501019: Event_282: system.switch_cpus0 progress event, total committed:128774577, progress insts committed: 25220362, IPC: 02.51951
16911902834352: Event_282: system.switch_cpus0 progress event, total committed:155826944, progress insts committed: 27052367, IPC: 02.70253
16911902834352: Event_283: system.switch_cpus1 progress event, total committed:155557108, progress insts committed: 26989291, IPC: 02.69623
16911902834352: Event_284: system.switch_cpus2 progress event, total committed:155728788, progress insts committed: 27017563, IPC: 02.69905
16911902834352: Event_285: system.switch_cpus3 progress event, total committed:155584291, progress insts committed: 26978142, IPC: 02.69512
16915236167685: Event_285: system.switch_cpus3 progress event, total committed:178615784, progress insts committed: 23031493, IPC: 02.30085
16915236167685: Event_284: system.switch_cpus2 progress event, total committed:178695143, progress insts committed: 22966355, IPC: 02.29434
16915236167685: Event_283: system.switch_cpus1 progress event, total committed:178555857, progress insts committed: 22998749, IPC: 02.29758
16915236167685: Event_282: system.switch_cpus0 progress event, total committed:178780183, progress insts committed: 22953239, IPC: 02.29303
16918569501018: Event_282: system.switch_cpus0 progress event, total committed:202726909, progress insts committed: 23946726, IPC: 02.39228
16918569501018: Event_283: system.switch_cpus1 progress event, total committed:202439114, progress insts committed: 23883257, IPC: 02.38594
16918569501018: Event_284: system.switch_cpus2 progress event, total committed:202586064, progress insts committed: 23890921, IPC: 002.3867
16918569501018: Event_285: system.switch_cpus3 progress event, total committed:202551231, progress insts committed: 23935447, IPC: 02.39115
16921902834351: Event_285: system.switch_cpus3 progress event, total committed:227733541, progress insts committed: 25182310, IPC: 02.51571
16921902834351: Event_284: system.switch_cpus2 progress event, total committed:227890170, progress insts committed: 25304106, IPC: 02.52788
16921902834351: Event_283: system.switch_cpus1 progress event, total committed:227642795, progress insts committed: 25203681, IPC: 02.51785
16921902834351: Event_282: system.switch_cpus0 progress event, total committed:228012930, progress insts committed: 25286021, IPC: 02.52607
16925236167684: Event_282: system.switch_cpus0 progress event, total committed:252245830, progress insts committed: 24232900, IPC: 02.42087
16925236167684: Event_283: system.switch_cpus1 progress event, total committed:251865182, progress insts committed: 24222387, IPC: 02.41982
16925236167684: Event_284: system.switch_cpus2 progress event, total committed:252101483, progress insts committed: 24211313, IPC: 02.41871
16925236167684: Event_285: system.switch_cpus3 progress event, total committed:251898097, progress insts committed: 24164556, IPC: 02.41404
16928569501017: Event_285: system.switch_cpus3 progress event, total committed:274333961, progress insts committed: 22435864, IPC: 02.24134
16928569501017: Event_284: system.switch_cpus2 progress event, total committed:274506111, progress insts committed: 22404628, IPC: 02.23822
16928569501017: Event_283: system.switch_cpus1 progress event, total committed:274311314, progress insts committed: 22446132, IPC: 02.24237
16928569501017: Event_282: system.switch_cpus0 progress event, total committed:274653508, progress insts committed: 22407678, IPC: 02.23853
16931902834350: Event_282: system.switch_cpus0 progress event, total committed:295736870, progress insts committed: 21083362, IPC: 02.10623
16931902834350: Event_283: system.switch_cpus1 progress event, total committed:295394834, progress insts committed: 21083520, IPC: 02.10624
16931902834350: Event_284: system.switch_cpus2 progress event, total committed:295595356, progress insts committed: 21089245, IPC: 02.10682
16931902834350: Event_285: system.switch_cpus3 progress event, total committed:295430012, progress insts committed: 21096051, IPC: 002.1075
16935236167683: Event_285: system.switch_cpus3 progress event, total committed:318280468, progress insts committed: 22850456, IPC: 02.28276
16935236167683: Event_284: system.switch_cpus2 progress event, total committed:318502026, progress insts committed: 22906670, IPC: 02.28838
16935236167683: Event_283: system.switch_cpus1 progress event, total committed:318226291, progress insts committed: 22831457, IPC: 02.28086
16935236167683: Event_282: system.switch_cpus0 progress event, total committed:318643837, progress insts committed: 22906967, IPC: 02.28841
16938569501016: Event_282: system.switch_cpus0 progress event, total committed:345347579, progress insts committed: 26703742, IPC: 002.6677
16938569501016: Event_283: system.switch_cpus1 progress event, total committed:345043992, progress insts committed: 26817701, IPC: 02.67909
16938569501016: Event_284: system.switch_cpus2 progress event, total committed:345268175, progress insts committed: 26766149, IPC: 02.67394
16938569501016: Event_285: system.switch_cpus3 progress event, total committed:345098008, progress insts committed: 26817540, IPC: 02.67907
16941902834349: Event_285: system.switch_cpus3 progress event, total committed:366356299, progress insts committed: 21258291, IPC: 002.1237
16941902834349: Event_284: system.switch_cpus2 progress event, total committed:366543736, progress insts committed: 21275561, IPC: 02.12543
16941902834349: Event_283: system.switch_cpus1 progress event, total committed:366278407, progress insts committed: 21234415, IPC: 02.12132
16941902834349: Event_282: system.switch_cpus0 progress event, total committed:366615107, progress insts committed: 21267528, IPC: 02.12463
Exiting @ tick 16944258167946 because a thread reached the max instruction count
