Command line:
./runscript_pride.sh wrf AE.BASELINE.1C 1 2017
Global frequency set at 1000000000000 ticks per second
DRAM config: RowsPerBank: 65536, BanksPerRank: 32, RanksPerChannel: 1
warn: Sockets disabled, not accepting gdb connections
warn: CoherentXBar system.cpu.mmucache.mmubus has no snooping ports attached!
warn: Checkpoints for file descriptors currently do not work.
gem5 Simulator System.  http://gem5.org
gem5 is copyrighted software; use the --copyright option for details.

gem5 version 20.1.0.5
gem5 compiled Jul 12 2024 12:42:38
gem5 started Jul 31 2024 03:21:18
gem5 executing on a07dda8b130c, pid 225565
command line: /home/user/PrIDE/performance/gem5/build/X86/gem5.opt --outdir=/home/user/PrIDE/performance/gem5/stats/pride_multiprogram_16GBmem_250Mn.SPEC2017.C1/AE.BASELINE.1C/wrf /home/user/PrIDE/performance/gem5/configs/example/se_rq_spec_config_multicore.py --redirects /lib64=/home/utils/gcc-6.2.0/lib64 --benchmark=wrf --benchmark_stdout=/home/user/PrIDE/performance/gem5/stats/pride_multiprogram_16GBmem_250Mn.SPEC2017.C1/AE.BASELINE.1C/wrf/wrf.out --benchmark_stderr=/home/user/PrIDE/performance/gem5/stats/pride_multiprogram_16GBmem_250Mn.SPEC2017.C1/AE.BASELINE.1C/wrf/wrf.err --spec-version=2017 --num-cpus=1 --mem-size=16GB --mem-type=DDR5_2400_32x4 --mem-ranks=1 --mem-channels=1 --checkpoint-dir=/home/user/PrIDE/performance/gem5/cpts-DDR5/multiprogram_16GBmem_25Bn.SPEC2017.C1/wrf-1-ref-x86 --checkpoint-restore=25000000000 --at-instruction --cpu-type DerivO3CPU --caches --l2cache --l1d_size=32kB --l1i_size=32kB --l2_size=256kB --l3_size=4MB --l1d_assoc=8 --l1i_assoc=8 --l2_assoc=16 --l3_assoc=16 --cpu-clock=3GHz --sys-clock=3GHz --maxinsts=250000000 --prog-interval=300Hz

info: Standard input is not a terminal, disabling listeners.
Benchmark- 0   wrf
Selected benchmark
--> wrf
CMD: ['/opt/spec2017/benchspec/CPU/521.wrf_r/run/run_base_refrate_gem5_se-m64.0000/wrf_r_base.gem5_se-m64']
CWD: /opt/spec2017/benchspec/CPU/521.wrf_r/run/run_base_refrate_gem5_se-m64.0000/
Process stdout file: /home/user/PrIDE/performance/gem5/stats/pride_multiprogram_16GBmem_250Mn.SPEC2017.C1/AE.BASELINE.1C/wrf/wrf.out_0
Process stderr file: /home/user/PrIDE/performance/gem5/stats/pride_multiprogram_16GBmem_250Mn.SPEC2017.C1/AE.BASELINE.1C/wrf/wrf.err_0
Workload-0: 
['/opt/spec2017/benchspec/CPU/521.wrf_r/run/run_base_refrate_gem5_se-m64.0000/wrf_r_base.gem5_se-m64']
defense_enable:  False  detector:  MG  mitigation:  RRS  threshold:  800
mg_entries:  1700
rrs_tuples:  3400 rrs_swap_delay:  2740ns rit_acc_delay:  1.25ns
Switch at curTick count:10000
warn: membus.master is deprecated. `master` is now called `mem_side_ports`
warn: No dot file generated. Please install pydot to generate the dot file and pdf.
info: Entering event queue @ 18146314377144.  Starting simulation...
info: Entering event queue @ 18146314387144.  Starting simulation...
warn: PowerState: Already in the requested power state, request ignored
Switched CPUS @ tick 18146314387144
switching cpus
**** REAL SIMULATION ****
info: Entering event queue @ 18146314387467.  Starting simulation...
warn: MOVNTDQ: Ignoring non-temporal hint, modeling as cacheable!
18149647710477: Event_93: system.switch_cpus progress event, total committed:29616788, progress insts committed: 29616788, IPC: 02.95872
18152981043810: Event_93: system.switch_cpus progress event, total committed:64113843, progress insts committed: 34497055, IPC: 03.44626
18156314377143: Event_93: system.switch_cpus progress event, total committed:98366279, progress insts committed: 34252436, IPC: 03.42182
18159647710476: Event_93: system.switch_cpus progress event, total committed:134235595, progress insts committed: 35869316, IPC: 03.58334
18162981043809: Event_93: system.switch_cpus progress event, total committed:169362057, progress insts committed: 35126462, IPC: 03.50913
18166314377142: Event_93: system.switch_cpus progress event, total committed:203852162, progress insts committed: 34490105, IPC: 03.44556
18169647710475: Event_93: system.switch_cpus progress event, total committed:239240889, progress insts committed: 35388727, IPC: 03.53533
18172981043808: Event_93: system.switch_cpus progress event, total committed:274941693, progress insts committed: 35700804, IPC: 03.56651
18176314377141: Event_93: system.switch_cpus progress event, total committed:309598234, progress insts committed: 34656541, IPC: 03.46219
18179647710474: Event_93: system.switch_cpus progress event, total committed:344026628, progress insts committed: 34428394, IPC: 003.4394
18182981043807: Event_93: system.switch_cpus progress event, total committed:379469239, progress insts committed: 35442611, IPC: 03.54072
18186314377140: Event_93: system.switch_cpus progress event, total committed:415026393, progress insts committed: 35557154, IPC: 03.55216
18189647710473: Event_93: system.switch_cpus progress event, total committed:433484903, progress insts committed: 18458510, IPC: 01.84401
18192981043806: Event_93: system.switch_cpus progress event, total committed:454357857, progress insts committed: 20872954, IPC: 02.08521
Exiting @ tick 18195485294340 because a thread reached the max instruction count
