
---------- Begin Simulation Statistics ----------
final_tick                               18195445452555                       # Number of ticks from beginning of simulation (restored from checkpoints and never reset)
host_inst_rate                                 110108                       # Simulator instruction rate (inst/s)
host_mem_usage                               17078908                       # Number of bytes of host memory used
host_op_rate                                   201030                       # Simulator op (including micro ops) rate (op/s)
host_seconds                                  2270.50                       # Real time elapsed on the host
host_tick_rate                               21638892                       # Simulator tick rate (ticks/s)
sim_freq                                 1000000000000                       # Frequency of simulated ticks
sim_insts                                   250000014                       # Number of instructions simulated
sim_ops                                     456438684                       # Number of ops (including micro ops) simulated
sim_seconds                                  0.049131                       # Number of seconds simulated
sim_ticks                                 49131081072                       # Number of ticks simulated
system.cpu.Branches                                 3                       # Number of branches fetched
system.cpu.committedInsts                          12                       # Number of instructions committed
system.cpu.committedOps                            24                       # Number of ops (including micro ops) committed
system.cpu.idle_fraction                            0                       # Percentage of idle cycles
system.cpu.l2bus.snoop_filter.hit_multi_requests          381                       # Number of requests hitting in the snoop filter with multiple (>1) holders of the requested data.
system.cpu.l2bus.snoop_filter.hit_multi_snoops            0                       # Number of snoops hitting in the snoop filter with multiple (>1) holders of the requested data.
system.cpu.l2bus.snoop_filter.hit_single_requests      1733190                       # Number of requests hitting in the snoop filter with a single holder of the requested data.
system.cpu.l2bus.snoop_filter.hit_single_snoops        31806                       # Number of snoops hitting in the snoop filter with a single holder of the requested data.
system.cpu.l2bus.snoop_filter.tot_requests      3410105                       # Total number of requests made to the snoop filter.
system.cpu.l2bus.snoop_filter.tot_snoops        31806                       # Total number of snoops made to the snoop filter.
system.cpu.mmucache.mmubus.snoop_filter.hit_multi_requests            0                       # Number of requests hitting in the snoop filter with multiple (>1) holders of the requested data.
system.cpu.mmucache.mmubus.snoop_filter.hit_multi_snoops            0                       # Number of snoops hitting in the snoop filter with multiple (>1) holders of the requested data.
system.cpu.mmucache.mmubus.snoop_filter.hit_single_requests            0                       # Number of requests hitting in the snoop filter with a single holder of the requested data.
system.cpu.mmucache.mmubus.snoop_filter.hit_single_snoops            0                       # Number of snoops hitting in the snoop filter with a single holder of the requested data.
system.cpu.mmucache.mmubus.snoop_filter.tot_requests            0                       # Total number of requests made to the snoop filter.
system.cpu.mmucache.mmubus.snoop_filter.tot_snoops            0                       # Total number of snoops made to the snoop filter.
system.cpu.not_idle_fraction                        1                       # Percentage of non-idle cycles
system.cpu.numCycles                               30                       # number of cpu cycles simulated
system.cpu.numWorkItemsCompleted                    0                       # number of work items this cpu completed
system.cpu.numWorkItemsStarted                      0                       # number of work items this cpu started
system.cpu.num_busy_cycles                         30                       # Number of busy cycles
system.cpu.num_cc_register_reads                   20                       # number of times the CC registers were read
system.cpu.num_cc_register_writes                   6                       # number of times the CC registers were written
system.cpu.num_conditional_control_insts            3                       # number of instructions that are conditional controls
system.cpu.num_fp_alu_accesses                     14                       # Number of float alu accesses
system.cpu.num_fp_insts                            14                       # number of float instructions
system.cpu.num_fp_register_reads                   18                       # number of times the floating registers were read
system.cpu.num_fp_register_writes                  12                       # number of times the floating registers were written
system.cpu.num_func_calls                           0                       # number of times a function call or return occured
system.cpu.num_idle_cycles                          0                       # Number of idle cycles
system.cpu.num_int_alu_accesses                    12                       # Number of integer alu accesses
system.cpu.num_int_insts                           12                       # number of integer instructions
system.cpu.num_int_register_reads                  20                       # number of times the integer registers were read
system.cpu.num_int_register_writes                  7                       # number of times the integer registers were written
system.cpu.num_load_insts                           2                       # Number of load instructions
system.cpu.num_mem_refs                             2                       # number of memory refs
system.cpu.num_store_insts                          0                       # Number of store instructions
system.cpu.num_vec_alu_accesses                     0                       # Number of vector alu accesses
system.cpu.num_vec_insts                            0                       # number of vector instructions
system.cpu.num_vec_register_reads                   0                       # number of times the vector registers were read
system.cpu.num_vec_register_writes                  0                       # number of times the vector registers were written
system.cpu.op_class::No_OpClass                     0      0.00%      0.00% # Class of executed instruction
system.cpu.op_class::IntAlu                        14     58.33%     58.33% # Class of executed instruction
system.cpu.op_class::IntMult                        0      0.00%     58.33% # Class of executed instruction
system.cpu.op_class::IntDiv                         0      0.00%     58.33% # Class of executed instruction
system.cpu.op_class::FloatAdd                       4     16.67%     75.00% # Class of executed instruction
system.cpu.op_class::FloatCmp                       0      0.00%     75.00% # Class of executed instruction
system.cpu.op_class::FloatCvt                       0      0.00%     75.00% # Class of executed instruction
system.cpu.op_class::FloatMult                      0      0.00%     75.00% # Class of executed instruction
system.cpu.op_class::FloatMultAcc                   0      0.00%     75.00% # Class of executed instruction
system.cpu.op_class::FloatDiv                       0      0.00%     75.00% # Class of executed instruction
system.cpu.op_class::FloatMisc                      0      0.00%     75.00% # Class of executed instruction
system.cpu.op_class::FloatSqrt                      0      0.00%     75.00% # Class of executed instruction
system.cpu.op_class::SimdAdd                        0      0.00%     75.00% # Class of executed instruction
system.cpu.op_class::SimdAddAcc                     0      0.00%     75.00% # Class of executed instruction
system.cpu.op_class::SimdAlu                        0      0.00%     75.00% # Class of executed instruction
system.cpu.op_class::SimdCmp                        0      0.00%     75.00% # Class of executed instruction
system.cpu.op_class::SimdCvt                        0      0.00%     75.00% # Class of executed instruction
system.cpu.op_class::SimdMisc                       0      0.00%     75.00% # Class of executed instruction
system.cpu.op_class::SimdMult                       0      0.00%     75.00% # Class of executed instruction
system.cpu.op_class::SimdMultAcc                    0      0.00%     75.00% # Class of executed instruction
system.cpu.op_class::SimdShift                      0      0.00%     75.00% # Class of executed instruction
system.cpu.op_class::SimdShiftAcc                   0      0.00%     75.00% # Class of executed instruction
system.cpu.op_class::SimdDiv                        0      0.00%     75.00% # Class of executed instruction
system.cpu.op_class::SimdSqrt                       0      0.00%     75.00% # Class of executed instruction
system.cpu.op_class::SimdFloatAdd                   1      4.17%     79.17% # Class of executed instruction
system.cpu.op_class::SimdFloatAlu                   0      0.00%     79.17% # Class of executed instruction
system.cpu.op_class::SimdFloatCmp                   0      0.00%     79.17% # Class of executed instruction
system.cpu.op_class::SimdFloatCvt                   2      8.33%     87.50% # Class of executed instruction
system.cpu.op_class::SimdFloatDiv                   0      0.00%     87.50% # Class of executed instruction
system.cpu.op_class::SimdFloatMisc                  0      0.00%     87.50% # Class of executed instruction
system.cpu.op_class::SimdFloatMult                  1      4.17%     91.67% # Class of executed instruction
system.cpu.op_class::SimdFloatMultAcc               0      0.00%     91.67% # Class of executed instruction
system.cpu.op_class::SimdFloatSqrt                  0      0.00%     91.67% # Class of executed instruction
system.cpu.op_class::SimdReduceAdd                  0      0.00%     91.67% # Class of executed instruction
system.cpu.op_class::SimdReduceAlu                  0      0.00%     91.67% # Class of executed instruction
system.cpu.op_class::SimdReduceCmp                  0      0.00%     91.67% # Class of executed instruction
system.cpu.op_class::SimdFloatReduceAdd             0      0.00%     91.67% # Class of executed instruction
system.cpu.op_class::SimdFloatReduceCmp             0      0.00%     91.67% # Class of executed instruction
system.cpu.op_class::SimdAes                        0      0.00%     91.67% # Class of executed instruction
system.cpu.op_class::SimdAesMix                     0      0.00%     91.67% # Class of executed instruction
system.cpu.op_class::SimdSha1Hash                   0      0.00%     91.67% # Class of executed instruction
system.cpu.op_class::SimdSha1Hash2                  0      0.00%     91.67% # Class of executed instruction
system.cpu.op_class::SimdSha256Hash                 0      0.00%     91.67% # Class of executed instruction
system.cpu.op_class::SimdSha256Hash2                0      0.00%     91.67% # Class of executed instruction
system.cpu.op_class::SimdShaSigma2                  0      0.00%     91.67% # Class of executed instruction
system.cpu.op_class::SimdShaSigma3                  0      0.00%     91.67% # Class of executed instruction
system.cpu.op_class::SimdPredAlu                    0      0.00%     91.67% # Class of executed instruction
system.cpu.op_class::MemRead                        0      0.00%     91.67% # Class of executed instruction
system.cpu.op_class::MemWrite                       0      0.00%     91.67% # Class of executed instruction
system.cpu.op_class::FloatMemRead                   2      8.33%    100.00% # Class of executed instruction
system.cpu.op_class::FloatMemWrite                  0      0.00%    100.00% # Class of executed instruction
system.cpu.op_class::IprAccess                      0      0.00%    100.00% # Class of executed instruction
system.cpu.op_class::InstPrefetch                   0      0.00%    100.00% # Class of executed instruction
system.cpu.op_class::total                         24                       # Class of executed instruction
system.cpu.workload.numSyscalls                     0                       # Number of system calls
system.l3bus.snoop_filter.hit_multi_requests            0                       # Number of requests hitting in the snoop filter with multiple (>1) holders of the requested data.
system.l3bus.snoop_filter.hit_multi_snoops            0                       # Number of snoops hitting in the snoop filter with multiple (>1) holders of the requested data.
system.l3bus.snoop_filter.hit_single_requests       789660                       # Number of requests hitting in the snoop filter with a single holder of the requested data.
system.l3bus.snoop_filter.hit_single_snoops            0                       # Number of snoops hitting in the snoop filter with a single holder of the requested data.
system.l3bus.snoop_filter.tot_requests        1583752                       # Total number of requests made to the snoop filter.
system.l3bus.snoop_filter.tot_snoops                0                       # Total number of snoops made to the snoop filter.
system.membus.snoop_filter.hit_multi_requests            0                       # Number of requests hitting in the snoop filter with multiple (>1) holders of the requested data.
system.membus.snoop_filter.hit_multi_snoops            0                       # Number of snoops hitting in the snoop filter with multiple (>1) holders of the requested data.
system.membus.snoop_filter.hit_single_requests       143134                       # Number of requests hitting in the snoop filter with a single holder of the requested data.
system.membus.snoop_filter.hit_single_snoops            0                       # Number of snoops hitting in the snoop filter with a single holder of the requested data.
system.membus.snoop_filter.tot_requests        356297                       # Total number of requests made to the snoop filter.
system.membus.snoop_filter.tot_snoops               0                       # Total number of snoops made to the snoop filter.
system.switch_cpus.cc_regfile_reads         193070297                       # number of cc regfile reads
system.switch_cpus.cc_regfile_writes        110346243                       # number of cc regfile writes
system.switch_cpus.committedInsts           250000002                       # Number of Instructions Simulated
system.switch_cpus.committedOps             456438660                       # Number of Ops (including micro ops) Simulated
system.switch_cpus.cpi                       0.590163                       # CPI: Cycles Per Instruction
system.switch_cpus.cpi_total                 0.590163                       # CPI: Total CPI of All Threads
system.switch_cpus.fp_regfile_reads         309208656                       # number of floating regfile reads
system.switch_cpus.fp_regfile_writes        225697489                       # number of floating regfile writes
system.switch_cpus.idleCycles                  639383                       # Total number of cycles that the CPU has spent unscheduled due to idling
system.switch_cpus.iew.branchMispredicts       616550                       # Number of branch mispredicts detected at execute
system.switch_cpus.iew.exec_branches         34836261                       # Number of branches executed
system.switch_cpus.iew.exec_nop                     0                       # number of nop insts executed
system.switch_cpus.iew.exec_rate             3.325708                       # Inst execution rate
system.switch_cpus.iew.exec_refs            107685459                       # number of memory reference insts executed
system.switch_cpus.iew.exec_stores           30578014                       # Number of stores executed
system.switch_cpus.iew.exec_swp                     0                       # number of swp insts executed
system.switch_cpus.iew.iewBlockCycles        14198249                       # Number of cycles IEW is blocking
system.switch_cpus.iew.iewDispLoadInsts      77011045                       # Number of dispatched load instructions
system.switch_cpus.iew.iewDispNonSpecInsts         2124                       # Number of dispatched non-speculative instructions
system.switch_cpus.iew.iewDispSquashedInsts        13994                       # Number of squashed instructions skipped by dispatch
system.switch_cpus.iew.iewDispStoreInsts     32739727                       # Number of dispatched store instructions
system.switch_cpus.iew.iewDispatchedInsts    499839256                       # Number of instructions dispatched to IQ
system.switch_cpus.iew.iewExecLoadInsts      77107445                       # Number of load instructions executed
system.switch_cpus.iew.iewExecSquashedInsts      2031975                       # Number of squashed instructions skipped in execute
system.switch_cpus.iew.iewExecutedInsts     490677524                       # Number of executed instructions
system.switch_cpus.iew.iewIQFullEvents         118676                       # Number of times the IQ has become full, causing a stall
system.switch_cpus.iew.iewIdleCycles                0                       # Number of cycles IEW is idle
system.switch_cpus.iew.iewLSQFullEvents       4403512                       # Number of times the LSQ has become full, causing a stall
system.switch_cpus.iew.iewSquashCycles         721552                       # Number of cycles IEW is squashing
system.switch_cpus.iew.iewUnblockCycles       4557849                       # Number of cycles IEW is unblocking
system.switch_cpus.iew.memOrderViolationEvents         9786                       # Number of memory order violations
system.switch_cpus.iew.predictedNotTakenIncorrect       223692                       # Number of branches that were predicted not taken incorrectly
system.switch_cpus.iew.predictedTakenIncorrect       392858                       # Number of branches that were predicted taken incorrectly
system.switch_cpus.iew.wb_consumers         537422457                       # num instructions consuming a value
system.switch_cpus.iew.wb_count             487311814                       # cumulative count of insts written-back
system.switch_cpus.iew.wb_fanout             0.600258                       # average fanout of values written-back
system.switch_cpus.iew.wb_producers         322592362                       # num instructions producing a value
system.switch_cpus.iew.wb_rate               3.302896                       # insts written-back per cycle
system.switch_cpus.iew.wb_sent              489216955                       # cumulative count of insts sent to commit
system.switch_cpus.int_regfile_reads        419803668                       # number of integer regfile reads
system.switch_cpus.int_regfile_writes       182730184                       # number of integer regfile writes
system.switch_cpus.ipc                       1.694447                       # IPC: Instructions Per Cycle
system.switch_cpus.ipc_total                 1.694447                       # IPC: Total IPC of All Threads
system.switch_cpus.iq.FU_type_0::No_OpClass      1569391      0.32%      0.32% # Type of FU issued
system.switch_cpus.iq.FU_type_0::IntAlu     222749349     45.21%     45.53% # Type of FU issued
system.switch_cpus.iq.FU_type_0::IntMult        11379      0.00%     45.53% # Type of FU issued
system.switch_cpus.iq.FU_type_0::IntDiv             0      0.00%     45.53% # Type of FU issued
system.switch_cpus.iq.FU_type_0::FloatAdd     68834620     13.97%     59.50% # Type of FU issued
system.switch_cpus.iq.FU_type_0::FloatCmp            0      0.00%     59.50% # Type of FU issued
system.switch_cpus.iq.FU_type_0::FloatCvt            0      0.00%     59.50% # Type of FU issued
system.switch_cpus.iq.FU_type_0::FloatMult            0      0.00%     59.50% # Type of FU issued
system.switch_cpus.iq.FU_type_0::FloatMultAcc            0      0.00%     59.50% # Type of FU issued
system.switch_cpus.iq.FU_type_0::FloatDiv            0      0.00%     59.50% # Type of FU issued
system.switch_cpus.iq.FU_type_0::FloatMisc            0      0.00%     59.50% # Type of FU issued
system.switch_cpus.iq.FU_type_0::FloatSqrt            0      0.00%     59.50% # Type of FU issued
system.switch_cpus.iq.FU_type_0::SimdAdd            0      0.00%     59.50% # Type of FU issued
system.switch_cpus.iq.FU_type_0::SimdAddAcc            0      0.00%     59.50% # Type of FU issued
system.switch_cpus.iq.FU_type_0::SimdAlu      9235836      1.87%     61.38% # Type of FU issued
system.switch_cpus.iq.FU_type_0::SimdCmp            0      0.00%     61.38% # Type of FU issued
system.switch_cpus.iq.FU_type_0::SimdCvt            0      0.00%     61.38% # Type of FU issued
system.switch_cpus.iq.FU_type_0::SimdMisc      5713923      1.16%     62.53% # Type of FU issued
system.switch_cpus.iq.FU_type_0::SimdMult            0      0.00%     62.53% # Type of FU issued
system.switch_cpus.iq.FU_type_0::SimdMultAcc            0      0.00%     62.53% # Type of FU issued
system.switch_cpus.iq.FU_type_0::SimdShift            0      0.00%     62.53% # Type of FU issued
system.switch_cpus.iq.FU_type_0::SimdShiftAcc            0      0.00%     62.53% # Type of FU issued
system.switch_cpus.iq.FU_type_0::SimdDiv            0      0.00%     62.53% # Type of FU issued
system.switch_cpus.iq.FU_type_0::SimdSqrt            0      0.00%     62.53% # Type of FU issued
system.switch_cpus.iq.FU_type_0::SimdFloatAdd     23823660      4.84%     67.37% # Type of FU issued
system.switch_cpus.iq.FU_type_0::SimdFloatAlu            0      0.00%     67.37% # Type of FU issued
system.switch_cpus.iq.FU_type_0::SimdFloatCmp       652140      0.13%     67.50% # Type of FU issued
system.switch_cpus.iq.FU_type_0::SimdFloatCvt     18079302      3.67%     71.17% # Type of FU issued
system.switch_cpus.iq.FU_type_0::SimdFloatDiv      5719980      1.16%     72.33% # Type of FU issued
system.switch_cpus.iq.FU_type_0::SimdFloatMisc            0      0.00%     72.33% # Type of FU issued
system.switch_cpus.iq.FU_type_0::SimdFloatMult     27058817      5.49%     77.82% # Type of FU issued
system.switch_cpus.iq.FU_type_0::SimdFloatMultAcc            0      0.00%     77.82% # Type of FU issued
system.switch_cpus.iq.FU_type_0::SimdFloatSqrt      1017006      0.21%     78.03% # Type of FU issued
system.switch_cpus.iq.FU_type_0::SimdReduceAdd            0      0.00%     78.03% # Type of FU issued
system.switch_cpus.iq.FU_type_0::SimdReduceAlu            0      0.00%     78.03% # Type of FU issued
system.switch_cpus.iq.FU_type_0::SimdReduceCmp            0      0.00%     78.03% # Type of FU issued
system.switch_cpus.iq.FU_type_0::SimdFloatReduceAdd            0      0.00%     78.03% # Type of FU issued
system.switch_cpus.iq.FU_type_0::SimdFloatReduceCmp            0      0.00%     78.03% # Type of FU issued
system.switch_cpus.iq.FU_type_0::SimdAes            0      0.00%     78.03% # Type of FU issued
system.switch_cpus.iq.FU_type_0::SimdAesMix            0      0.00%     78.03% # Type of FU issued
system.switch_cpus.iq.FU_type_0::SimdSha1Hash            0      0.00%     78.03% # Type of FU issued
system.switch_cpus.iq.FU_type_0::SimdSha1Hash2            0      0.00%     78.03% # Type of FU issued
system.switch_cpus.iq.FU_type_0::SimdSha256Hash            0      0.00%     78.03% # Type of FU issued
system.switch_cpus.iq.FU_type_0::SimdSha256Hash2            0      0.00%     78.03% # Type of FU issued
system.switch_cpus.iq.FU_type_0::SimdShaSigma2            0      0.00%     78.03% # Type of FU issued
system.switch_cpus.iq.FU_type_0::SimdShaSigma3            0      0.00%     78.03% # Type of FU issued
system.switch_cpus.iq.FU_type_0::SimdPredAlu            0      0.00%     78.03% # Type of FU issued
system.switch_cpus.iq.FU_type_0::MemRead     17019045      3.45%     81.49% # Type of FU issued
system.switch_cpus.iq.FU_type_0::MemWrite      7979560      1.62%     83.10% # Type of FU issued
system.switch_cpus.iq.FU_type_0::FloatMemRead     60530731     12.29%     95.39% # Type of FU issued
system.switch_cpus.iq.FU_type_0::FloatMemWrite     22714768      4.61%    100.00% # Type of FU issued
system.switch_cpus.iq.FU_type_0::IprAccess            0      0.00%    100.00% # Type of FU issued
system.switch_cpus.iq.FU_type_0::InstPrefetch            0      0.00%    100.00% # Type of FU issued
system.switch_cpus.iq.FU_type_0::total      492709507                       # Type of FU issued
system.switch_cpus.iq.fp_alu_accesses       272124034                       # Number of floating point alu accesses
system.switch_cpus.iq.fp_inst_queue_reads    541761318                       # Number of floating instruction queue reads
system.switch_cpus.iq.fp_inst_queue_wakeup_accesses    266646049                       # Number of floating instruction queue wakeup accesses
system.switch_cpus.iq.fp_inst_queue_writes    294416333                       # Number of floating instruction queue writes
system.switch_cpus.iq.fu_busy_cnt             4866678                       # FU busy when requested
system.switch_cpus.iq.fu_busy_rate           0.009877                       # FU busy rate (busy events/executed inst)
system.switch_cpus.iq.fu_full::No_OpClass            0      0.00%      0.00% # attempts to use FU when none available
system.switch_cpus.iq.fu_full::IntAlu         1314273     27.01%     27.01% # attempts to use FU when none available
system.switch_cpus.iq.fu_full::IntMult              0      0.00%     27.01% # attempts to use FU when none available
system.switch_cpus.iq.fu_full::IntDiv               0      0.00%     27.01% # attempts to use FU when none available
system.switch_cpus.iq.fu_full::FloatAdd         95298      1.96%     28.96% # attempts to use FU when none available
system.switch_cpus.iq.fu_full::FloatCmp             0      0.00%     28.96% # attempts to use FU when none available
system.switch_cpus.iq.fu_full::FloatCvt             0      0.00%     28.96% # attempts to use FU when none available
system.switch_cpus.iq.fu_full::FloatMult            0      0.00%     28.96% # attempts to use FU when none available
system.switch_cpus.iq.fu_full::FloatMultAcc            0      0.00%     28.96% # attempts to use FU when none available
system.switch_cpus.iq.fu_full::FloatDiv             0      0.00%     28.96% # attempts to use FU when none available
system.switch_cpus.iq.fu_full::FloatMisc            0      0.00%     28.96% # attempts to use FU when none available
system.switch_cpus.iq.fu_full::FloatSqrt            0      0.00%     28.96% # attempts to use FU when none available
system.switch_cpus.iq.fu_full::SimdAdd              0      0.00%     28.96% # attempts to use FU when none available
system.switch_cpus.iq.fu_full::SimdAddAcc            0      0.00%     28.96% # attempts to use FU when none available
system.switch_cpus.iq.fu_full::SimdAlu         201771      4.15%     33.11% # attempts to use FU when none available
system.switch_cpus.iq.fu_full::SimdCmp              0      0.00%     33.11% # attempts to use FU when none available
system.switch_cpus.iq.fu_full::SimdCvt              0      0.00%     33.11% # attempts to use FU when none available
system.switch_cpus.iq.fu_full::SimdMisc         28691      0.59%     33.70% # attempts to use FU when none available
system.switch_cpus.iq.fu_full::SimdMult             0      0.00%     33.70% # attempts to use FU when none available
system.switch_cpus.iq.fu_full::SimdMultAcc            0      0.00%     33.70% # attempts to use FU when none available
system.switch_cpus.iq.fu_full::SimdShift            0      0.00%     33.70% # attempts to use FU when none available
system.switch_cpus.iq.fu_full::SimdShiftAcc            0      0.00%     33.70% # attempts to use FU when none available
system.switch_cpus.iq.fu_full::SimdDiv              0      0.00%     33.70% # attempts to use FU when none available
system.switch_cpus.iq.fu_full::SimdSqrt             0      0.00%     33.70% # attempts to use FU when none available
system.switch_cpus.iq.fu_full::SimdFloatAdd        51950      1.07%     34.77% # attempts to use FU when none available
system.switch_cpus.iq.fu_full::SimdFloatAlu            0      0.00%     34.77% # attempts to use FU when none available
system.switch_cpus.iq.fu_full::SimdFloatCmp            3      0.00%     34.77% # attempts to use FU when none available
system.switch_cpus.iq.fu_full::SimdFloatCvt       139546      2.87%     37.63% # attempts to use FU when none available
system.switch_cpus.iq.fu_full::SimdFloatDiv        16261      0.33%     37.97% # attempts to use FU when none available
system.switch_cpus.iq.fu_full::SimdFloatMisc            0      0.00%     37.97% # attempts to use FU when none available
system.switch_cpus.iq.fu_full::SimdFloatMult        87251      1.79%     39.76% # attempts to use FU when none available
system.switch_cpus.iq.fu_full::SimdFloatMultAcc            0      0.00%     39.76% # attempts to use FU when none available
system.switch_cpus.iq.fu_full::SimdFloatSqrt         1027      0.02%     39.78% # attempts to use FU when none available
system.switch_cpus.iq.fu_full::SimdReduceAdd            0      0.00%     39.78% # attempts to use FU when none available
system.switch_cpus.iq.fu_full::SimdReduceAlu            0      0.00%     39.78% # attempts to use FU when none available
system.switch_cpus.iq.fu_full::SimdReduceCmp            0      0.00%     39.78% # attempts to use FU when none available
system.switch_cpus.iq.fu_full::SimdFloatReduceAdd            0      0.00%     39.78% # attempts to use FU when none available
system.switch_cpus.iq.fu_full::SimdFloatReduceCmp            0      0.00%     39.78% # attempts to use FU when none available
system.switch_cpus.iq.fu_full::SimdAes              0      0.00%     39.78% # attempts to use FU when none available
system.switch_cpus.iq.fu_full::SimdAesMix            0      0.00%     39.78% # attempts to use FU when none available
system.switch_cpus.iq.fu_full::SimdSha1Hash            0      0.00%     39.78% # attempts to use FU when none available
system.switch_cpus.iq.fu_full::SimdSha1Hash2            0      0.00%     39.78% # attempts to use FU when none available
system.switch_cpus.iq.fu_full::SimdSha256Hash            0      0.00%     39.78% # attempts to use FU when none available
system.switch_cpus.iq.fu_full::SimdSha256Hash2            0      0.00%     39.78% # attempts to use FU when none available
system.switch_cpus.iq.fu_full::SimdShaSigma2            0      0.00%     39.78% # attempts to use FU when none available
system.switch_cpus.iq.fu_full::SimdShaSigma3            0      0.00%     39.78% # attempts to use FU when none available
system.switch_cpus.iq.fu_full::SimdPredAlu            0      0.00%     39.78% # attempts to use FU when none available
system.switch_cpus.iq.fu_full::MemRead         417989      8.59%     48.37% # attempts to use FU when none available
system.switch_cpus.iq.fu_full::MemWrite        724719     14.89%     63.26% # attempts to use FU when none available
system.switch_cpus.iq.fu_full::FloatMemRead      1130993     23.24%     86.50% # attempts to use FU when none available
system.switch_cpus.iq.fu_full::FloatMemWrite       656906     13.50%    100.00% # attempts to use FU when none available
system.switch_cpus.iq.fu_full::IprAccess            0      0.00%    100.00% # attempts to use FU when none available
system.switch_cpus.iq.fu_full::InstPrefetch            0      0.00%    100.00% # attempts to use FU when none available
system.switch_cpus.iq.int_alu_accesses      223882760                       # Number of integer alu accesses
system.switch_cpus.iq.int_inst_queue_reads    595682844                       # Number of integer instruction queue reads
system.switch_cpus.iq.int_inst_queue_wakeup_accesses    220665765                       # Number of integer instruction queue wakeup accesses
system.switch_cpus.iq.int_inst_queue_writes    248833051                       # Number of integer instruction queue writes
system.switch_cpus.iq.iqInstsAdded          499711938                       # Number of instructions added to the IQ (excludes non-spec)
system.switch_cpus.iq.iqInstsIssued         492709507                       # Number of instructions issued
system.switch_cpus.iq.iqNonSpecInstsAdded       127318                       # Number of non-speculative instructions added to the IQ
system.switch_cpus.iq.iqSquashedInstsExamined     43400574                       # Number of squashed instructions iterated over during squash; mainly for profiling
system.switch_cpus.iq.iqSquashedInstsIssued       257108                       # Number of squashed instructions issued
system.switch_cpus.iq.iqSquashedNonSpecRemoved       114454                       # Number of squashed non-spec instructions that were removed
system.switch_cpus.iq.iqSquashedOperandsExamined     35984235                       # Number of squashed operands that are examined and possibly removed from graph
system.switch_cpus.iq.issued_per_cycle::samples    146901370                       # Number of insts issued each cycle
system.switch_cpus.iq.issued_per_cycle::mean     3.354016                       # Number of insts issued each cycle
system.switch_cpus.iq.issued_per_cycle::stdev     3.040884                       # Number of insts issued each cycle
system.switch_cpus.iq.issued_per_cycle::underflows            0      0.00%      0.00% # Number of insts issued each cycle
system.switch_cpus.iq.issued_per_cycle::0     49915121     33.98%     33.98% # Number of insts issued each cycle
system.switch_cpus.iq.issued_per_cycle::1      7487236      5.10%     39.08% # Number of insts issued each cycle
system.switch_cpus.iq.issued_per_cycle::2      9467190      6.44%     45.52% # Number of insts issued each cycle
system.switch_cpus.iq.issued_per_cycle::3     10930813      7.44%     52.96% # Number of insts issued each cycle
system.switch_cpus.iq.issued_per_cycle::4     11359964      7.73%     60.69% # Number of insts issued each cycle
system.switch_cpus.iq.issued_per_cycle::5     12383097      8.43%     69.12% # Number of insts issued each cycle
system.switch_cpus.iq.issued_per_cycle::6     11911189      8.11%     77.23% # Number of insts issued each cycle
system.switch_cpus.iq.issued_per_cycle::7     12901103      8.78%     86.01% # Number of insts issued each cycle
system.switch_cpus.iq.issued_per_cycle::8     20545657     13.99%    100.00% # Number of insts issued each cycle
system.switch_cpus.iq.issued_per_cycle::overflows            0      0.00%    100.00% # Number of insts issued each cycle
system.switch_cpus.iq.issued_per_cycle::min_value            0                       # Number of insts issued each cycle
system.switch_cpus.iq.issued_per_cycle::max_value            8                       # Number of insts issued each cycle
system.switch_cpus.iq.issued_per_cycle::total    146901370                       # Number of insts issued each cycle
system.switch_cpus.iq.rate                   3.339481                       # Inst issue rate
system.switch_cpus.iq.vec_alu_accesses              0                       # Number of vector alu accesses
system.switch_cpus.iq.vec_inst_queue_reads            0                       # Number of vector instruction queue reads
system.switch_cpus.iq.vec_inst_queue_wakeup_accesses            0                       # Number of vector instruction queue wakeup accesses
system.switch_cpus.iq.vec_inst_queue_writes            0                       # Number of vector instruction queue writes
system.switch_cpus.memDep0.conflictingLoads      3508278                       # Number of conflicting loads.
system.switch_cpus.memDep0.conflictingStores      3137373                       # Number of conflicting stores.
system.switch_cpus.memDep0.insertedLoads     77011045                       # Number of loads inserted to the mem dependence unit.
system.switch_cpus.memDep0.insertedStores     32739727                       # Number of stores inserted to the mem dependence unit.
system.switch_cpus.misc_regfile_reads       194537568                       # number of misc regfile reads
system.switch_cpus.misc_regfile_writes              1                       # number of misc regfile writes
system.switch_cpus.numCycles                147540753                       # number of cpu cycles simulated
system.switch_cpus.numWorkItemsCompleted            0                       # number of work items this cpu completed
system.switch_cpus.numWorkItemsStarted              0                       # number of work items this cpu started
system.switch_cpus.timesIdled                   20555                       # Number of times that the entire CPU went into an idle state and unscheduled itself
system.clk_domain.clock                           333                       # Clock period in ticks
system.cpu.dcache.demand_hits::.switch_cpus.data     93685802                       # number of demand (read+write) hits
system.cpu.dcache.demand_hits::total         93685802                       # number of demand (read+write) hits
system.cpu.dcache.overall_hits::.switch_cpus.data     94488901                       # number of overall hits
system.cpu.dcache.overall_hits::total        94488901                       # number of overall hits
system.cpu.dcache.demand_misses::.cpu.data            2                       # number of demand (read+write) misses
system.cpu.dcache.demand_misses::.switch_cpus.data      3129728                       # number of demand (read+write) misses
system.cpu.dcache.demand_misses::total        3129730                       # number of demand (read+write) misses
system.cpu.dcache.overall_misses::.cpu.data            2                       # number of overall misses
system.cpu.dcache.overall_misses::.switch_cpus.data      3257381                       # number of overall misses
system.cpu.dcache.overall_misses::total       3257383                       # number of overall misses
system.cpu.dcache.demand_miss_latency::.switch_cpus.data  92279360451                       # number of demand (read+write) miss cycles
system.cpu.dcache.demand_miss_latency::total  92279360451                       # number of demand (read+write) miss cycles
system.cpu.dcache.overall_miss_latency::.switch_cpus.data  92279360451                       # number of overall miss cycles
system.cpu.dcache.overall_miss_latency::total  92279360451                       # number of overall miss cycles
system.cpu.dcache.demand_accesses::.cpu.data            2                       # number of demand (read+write) accesses
system.cpu.dcache.demand_accesses::.switch_cpus.data     96815530                       # number of demand (read+write) accesses
system.cpu.dcache.demand_accesses::total     96815532                       # number of demand (read+write) accesses
system.cpu.dcache.overall_accesses::.cpu.data            2                       # number of overall (read+write) accesses
system.cpu.dcache.overall_accesses::.switch_cpus.data     97746282                       # number of overall (read+write) accesses
system.cpu.dcache.overall_accesses::total     97746284                       # number of overall (read+write) accesses
system.cpu.dcache.demand_miss_rate::.cpu.data            1                       # miss rate for demand accesses
system.cpu.dcache.demand_miss_rate::.switch_cpus.data     0.032327                       # miss rate for demand accesses
system.cpu.dcache.demand_miss_rate::total     0.032327                       # miss rate for demand accesses
system.cpu.dcache.overall_miss_rate::.cpu.data            1                       # miss rate for overall accesses
system.cpu.dcache.overall_miss_rate::.switch_cpus.data     0.033325                       # miss rate for overall accesses
system.cpu.dcache.overall_miss_rate::total     0.033325                       # miss rate for overall accesses
system.cpu.dcache.demand_avg_miss_latency::.switch_cpus.data 29484.786042                       # average overall miss latency
system.cpu.dcache.demand_avg_miss_latency::total 29484.767201                       # average overall miss latency
system.cpu.dcache.overall_avg_miss_latency::.switch_cpus.data 28329.311324                       # average overall miss latency
system.cpu.dcache.overall_avg_miss_latency::total 28329.293930                       # average overall miss latency
system.cpu.dcache.blocked_cycles::no_mshrs         4218                       # number of cycles access was blocked
system.cpu.dcache.blocked_cycles::no_targets      1165041                       # number of cycles access was blocked
system.cpu.dcache.blocked::no_mshrs              1068                       # number of cycles access was blocked
system.cpu.dcache.blocked::no_targets            6769                       # number of cycles access was blocked
system.cpu.dcache.avg_blocked_cycles::no_mshrs     3.949438                       # average number of cycles each access was blocked
system.cpu.dcache.avg_blocked_cycles::no_targets   172.114197                       # average number of cycles each access was blocked
system.cpu.dcache.writebacks::.writebacks      1645171                       # number of writebacks
system.cpu.dcache.writebacks::total           1645171                       # number of writebacks
system.cpu.dcache.demand_mshr_hits::.switch_cpus.data      1522899                       # number of demand (read+write) MSHR hits
system.cpu.dcache.demand_mshr_hits::total      1522899                       # number of demand (read+write) MSHR hits
system.cpu.dcache.overall_mshr_hits::.switch_cpus.data      1522899                       # number of overall MSHR hits
system.cpu.dcache.overall_mshr_hits::total      1522899                       # number of overall MSHR hits
system.cpu.dcache.demand_mshr_misses::.switch_cpus.data      1606829                       # number of demand (read+write) MSHR misses
system.cpu.dcache.demand_mshr_misses::total      1606829                       # number of demand (read+write) MSHR misses
system.cpu.dcache.overall_mshr_misses::.switch_cpus.data      1701652                       # number of overall MSHR misses
system.cpu.dcache.overall_mshr_misses::total      1701652                       # number of overall MSHR misses
system.cpu.dcache.demand_mshr_miss_latency::.switch_cpus.data  32036340774                       # number of demand (read+write) MSHR miss cycles
system.cpu.dcache.demand_mshr_miss_latency::total  32036340774                       # number of demand (read+write) MSHR miss cycles
system.cpu.dcache.overall_mshr_miss_latency::.switch_cpus.data  35369301477                       # number of overall MSHR miss cycles
system.cpu.dcache.overall_mshr_miss_latency::total  35369301477                       # number of overall MSHR miss cycles
system.cpu.dcache.demand_mshr_miss_rate::.switch_cpus.data     0.016597                       # mshr miss rate for demand accesses
system.cpu.dcache.demand_mshr_miss_rate::total     0.016597                       # mshr miss rate for demand accesses
system.cpu.dcache.overall_mshr_miss_rate::.switch_cpus.data     0.017409                       # mshr miss rate for overall accesses
system.cpu.dcache.overall_mshr_miss_rate::total     0.017409                       # mshr miss rate for overall accesses
system.cpu.dcache.demand_avg_mshr_miss_latency::.switch_cpus.data 19937.616743                       # average overall mshr miss latency
system.cpu.dcache.demand_avg_mshr_miss_latency::total 19937.616743                       # average overall mshr miss latency
system.cpu.dcache.overall_avg_mshr_miss_latency::.switch_cpus.data 20785.273062                       # average overall mshr miss latency
system.cpu.dcache.overall_avg_mshr_miss_latency::total 20785.273062                       # average overall mshr miss latency
system.cpu.dcache.replacements                1645171                       # number of replacements
system.cpu.dcache.ReadReq_hits::.switch_cpus.data     68070799                       # number of ReadReq hits
system.cpu.dcache.ReadReq_hits::total        68070799                       # number of ReadReq hits
system.cpu.dcache.ReadReq_misses::.cpu.data            2                       # number of ReadReq misses
system.cpu.dcache.ReadReq_misses::.switch_cpus.data      2492180                       # number of ReadReq misses
system.cpu.dcache.ReadReq_misses::total       2492182                       # number of ReadReq misses
system.cpu.dcache.ReadReq_miss_latency::.switch_cpus.data  81665084502                       # number of ReadReq miss cycles
system.cpu.dcache.ReadReq_miss_latency::total  81665084502                       # number of ReadReq miss cycles
system.cpu.dcache.ReadReq_accesses::.cpu.data            2                       # number of ReadReq accesses(hits+misses)
system.cpu.dcache.ReadReq_accesses::.switch_cpus.data     70562979                       # number of ReadReq accesses(hits+misses)
system.cpu.dcache.ReadReq_accesses::total     70562981                       # number of ReadReq accesses(hits+misses)
system.cpu.dcache.ReadReq_miss_rate::.cpu.data            1                       # miss rate for ReadReq accesses
system.cpu.dcache.ReadReq_miss_rate::.switch_cpus.data     0.035319                       # miss rate for ReadReq accesses
system.cpu.dcache.ReadReq_miss_rate::total     0.035319                       # miss rate for ReadReq accesses
system.cpu.dcache.ReadReq_avg_miss_latency::.switch_cpus.data 32768.533774                       # average ReadReq miss latency
system.cpu.dcache.ReadReq_avg_miss_latency::total 32768.507477                       # average ReadReq miss latency
system.cpu.dcache.ReadReq_mshr_hits::.switch_cpus.data      1517985                       # number of ReadReq MSHR hits
system.cpu.dcache.ReadReq_mshr_hits::total      1517985                       # number of ReadReq MSHR hits
system.cpu.dcache.ReadReq_mshr_misses::.switch_cpus.data       974195                       # number of ReadReq MSHR misses
system.cpu.dcache.ReadReq_mshr_misses::total       974195                       # number of ReadReq MSHR misses
system.cpu.dcache.ReadReq_mshr_miss_latency::.switch_cpus.data  21780010188                       # number of ReadReq MSHR miss cycles
system.cpu.dcache.ReadReq_mshr_miss_latency::total  21780010188                       # number of ReadReq MSHR miss cycles
system.cpu.dcache.ReadReq_mshr_miss_rate::.switch_cpus.data     0.013806                       # mshr miss rate for ReadReq accesses
system.cpu.dcache.ReadReq_mshr_miss_rate::total     0.013806                       # mshr miss rate for ReadReq accesses
system.cpu.dcache.ReadReq_avg_mshr_miss_latency::.switch_cpus.data 22356.930787                       # average ReadReq mshr miss latency
system.cpu.dcache.ReadReq_avg_mshr_miss_latency::total 22356.930787                       # average ReadReq mshr miss latency
system.cpu.dcache.WriteReq_hits::.switch_cpus.data     25615003                       # number of WriteReq hits
system.cpu.dcache.WriteReq_hits::total       25615003                       # number of WriteReq hits
system.cpu.dcache.WriteReq_misses::.switch_cpus.data       637548                       # number of WriteReq misses
system.cpu.dcache.WriteReq_misses::total       637548                       # number of WriteReq misses
system.cpu.dcache.WriteReq_miss_latency::.switch_cpus.data  10614275949                       # number of WriteReq miss cycles
system.cpu.dcache.WriteReq_miss_latency::total  10614275949                       # number of WriteReq miss cycles
system.cpu.dcache.WriteReq_accesses::.switch_cpus.data     26252551                       # number of WriteReq accesses(hits+misses)
system.cpu.dcache.WriteReq_accesses::total     26252551                       # number of WriteReq accesses(hits+misses)
system.cpu.dcache.WriteReq_miss_rate::.switch_cpus.data     0.024285                       # miss rate for WriteReq accesses
system.cpu.dcache.WriteReq_miss_rate::total     0.024285                       # miss rate for WriteReq accesses
system.cpu.dcache.WriteReq_avg_miss_latency::.switch_cpus.data 16648.591085                       # average WriteReq miss latency
system.cpu.dcache.WriteReq_avg_miss_latency::total 16648.591085                       # average WriteReq miss latency
system.cpu.dcache.WriteReq_mshr_hits::.switch_cpus.data         4914                       # number of WriteReq MSHR hits
system.cpu.dcache.WriteReq_mshr_hits::total         4914                       # number of WriteReq MSHR hits
system.cpu.dcache.WriteReq_mshr_misses::.switch_cpus.data       632634                       # number of WriteReq MSHR misses
system.cpu.dcache.WriteReq_mshr_misses::total       632634                       # number of WriteReq MSHR misses
system.cpu.dcache.WriteReq_mshr_miss_latency::.switch_cpus.data  10256330586                       # number of WriteReq MSHR miss cycles
system.cpu.dcache.WriteReq_mshr_miss_latency::total  10256330586                       # number of WriteReq MSHR miss cycles
system.cpu.dcache.WriteReq_mshr_miss_rate::.switch_cpus.data     0.024098                       # mshr miss rate for WriteReq accesses
system.cpu.dcache.WriteReq_mshr_miss_rate::total     0.024098                       # mshr miss rate for WriteReq accesses
system.cpu.dcache.WriteReq_avg_mshr_miss_latency::.switch_cpus.data 16212.107768                       # average WriteReq mshr miss latency
system.cpu.dcache.WriteReq_avg_mshr_miss_latency::total 16212.107768                       # average WriteReq mshr miss latency
system.cpu.dcache.SoftPFReq_hits::.switch_cpus.data       803099                       # number of SoftPFReq hits
system.cpu.dcache.SoftPFReq_hits::total        803099                       # number of SoftPFReq hits
system.cpu.dcache.SoftPFReq_misses::.switch_cpus.data       127653                       # number of SoftPFReq misses
system.cpu.dcache.SoftPFReq_misses::total       127653                       # number of SoftPFReq misses
system.cpu.dcache.SoftPFReq_accesses::.switch_cpus.data       930752                       # number of SoftPFReq accesses(hits+misses)
system.cpu.dcache.SoftPFReq_accesses::total       930752                       # number of SoftPFReq accesses(hits+misses)
system.cpu.dcache.SoftPFReq_miss_rate::.switch_cpus.data     0.137150                       # miss rate for SoftPFReq accesses
system.cpu.dcache.SoftPFReq_miss_rate::total     0.137150                       # miss rate for SoftPFReq accesses
system.cpu.dcache.SoftPFReq_mshr_misses::.switch_cpus.data        94823                       # number of SoftPFReq MSHR misses
system.cpu.dcache.SoftPFReq_mshr_misses::total        94823                       # number of SoftPFReq MSHR misses
system.cpu.dcache.SoftPFReq_mshr_miss_latency::.switch_cpus.data   3332960703                       # number of SoftPFReq MSHR miss cycles
system.cpu.dcache.SoftPFReq_mshr_miss_latency::total   3332960703                       # number of SoftPFReq MSHR miss cycles
system.cpu.dcache.SoftPFReq_mshr_miss_rate::.switch_cpus.data     0.101878                       # mshr miss rate for SoftPFReq accesses
system.cpu.dcache.SoftPFReq_mshr_miss_rate::total     0.101878                       # mshr miss rate for SoftPFReq accesses
system.cpu.dcache.SoftPFReq_avg_mshr_miss_latency::.switch_cpus.data 35149.285543                       # average SoftPFReq mshr miss latency
system.cpu.dcache.SoftPFReq_avg_mshr_miss_latency::total 35149.285543                       # average SoftPFReq mshr miss latency
system.cpu.dcache.power_state.pwrStateResidencyTicks::UNDEFINED 18195445452555                       # Cumulative time (in ticks) in various power states
system.cpu.dcache.tags.tagsinuse           511.864353                       # Cycle average of tags in use
system.cpu.dcache.tags.total_refs            96201341                       # Total number of references to valid blocks.
system.cpu.dcache.tags.sampled_refs           1645683                       # Sample count of references to valid blocks.
system.cpu.dcache.tags.avg_refs             58.456787                       # Average number of references to valid blocks.
system.cpu.dcache.tags.warmup_cycle      18146314375146                       # Cycle when the warmup percentage was hit.
system.cpu.dcache.tags.occ_blocks::.cpu.data     0.000975                       # Average occupied blocks per requestor
system.cpu.dcache.tags.occ_blocks::.switch_cpus.data   511.863378                       # Average occupied blocks per requestor
system.cpu.dcache.tags.occ_percent::.cpu.data     0.000002                       # Average percentage of cache occupancy
system.cpu.dcache.tags.occ_percent::.switch_cpus.data     0.999733                       # Average percentage of cache occupancy
system.cpu.dcache.tags.occ_percent::total     0.999735                       # Average percentage of cache occupancy
system.cpu.dcache.tags.occ_task_id_blocks::1024          512                       # Occupied blocks per task id
system.cpu.dcache.tags.age_task_id_blocks_1024::0          157                       # Occupied blocks per task id
system.cpu.dcache.tags.age_task_id_blocks_1024::1          355                       # Occupied blocks per task id
system.cpu.dcache.tags.occ_task_id_percent::1024            1                       # Percentage of cache occupancy per task id
system.cpu.dcache.tags.tag_accesses         783615955                       # Number of tag accesses
system.cpu.dcache.tags.data_accesses        783615955                       # Number of data accesses
system.cpu.dcache.tags.power_state.pwrStateResidencyTicks::UNDEFINED 18195445452555                       # Cumulative time (in ticks) in various power states
system.cpu.dtb.rdAccesses                           2                       # TLB accesses on read requests
system.cpu.dtb.wrAccesses                           0                       # TLB accesses on write requests
system.cpu.dtb.rdMisses                             0                       # TLB misses on read requests
system.cpu.dtb.wrMisses                             0                       # TLB misses on write requests
system.cpu.dtb.walker.power_state.pwrStateResidencyTicks::UNDEFINED 18195445452555                       # Cumulative time (in ticks) in various power states
system.cpu.icache.demand_hits::.cpu.inst           16                       # number of demand (read+write) hits
system.cpu.icache.demand_hits::.switch_cpus.inst     36732462                       # number of demand (read+write) hits
system.cpu.icache.demand_hits::total         36732478                       # number of demand (read+write) hits
system.cpu.icache.overall_hits::.cpu.inst           16                       # number of overall hits
system.cpu.icache.overall_hits::.switch_cpus.inst     36732462                       # number of overall hits
system.cpu.icache.overall_hits::total        36732478                       # number of overall hits
system.cpu.icache.demand_misses::.cpu.inst            2                       # number of demand (read+write) misses
system.cpu.icache.demand_misses::.switch_cpus.inst        35639                       # number of demand (read+write) misses
system.cpu.icache.demand_misses::total          35641                       # number of demand (read+write) misses
system.cpu.icache.overall_misses::.cpu.inst            2                       # number of overall misses
system.cpu.icache.overall_misses::.switch_cpus.inst        35639                       # number of overall misses
system.cpu.icache.overall_misses::total         35641                       # number of overall misses
system.cpu.icache.demand_miss_latency::.switch_cpus.inst    725391216                       # number of demand (read+write) miss cycles
system.cpu.icache.demand_miss_latency::total    725391216                       # number of demand (read+write) miss cycles
system.cpu.icache.overall_miss_latency::.switch_cpus.inst    725391216                       # number of overall miss cycles
system.cpu.icache.overall_miss_latency::total    725391216                       # number of overall miss cycles
system.cpu.icache.demand_accesses::.cpu.inst           18                       # number of demand (read+write) accesses
system.cpu.icache.demand_accesses::.switch_cpus.inst     36768101                       # number of demand (read+write) accesses
system.cpu.icache.demand_accesses::total     36768119                       # number of demand (read+write) accesses
system.cpu.icache.overall_accesses::.cpu.inst           18                       # number of overall (read+write) accesses
system.cpu.icache.overall_accesses::.switch_cpus.inst     36768101                       # number of overall (read+write) accesses
system.cpu.icache.overall_accesses::total     36768119                       # number of overall (read+write) accesses
system.cpu.icache.demand_miss_rate::.cpu.inst     0.111111                       # miss rate for demand accesses
system.cpu.icache.demand_miss_rate::.switch_cpus.inst     0.000969                       # miss rate for demand accesses
system.cpu.icache.demand_miss_rate::total     0.000969                       # miss rate for demand accesses
system.cpu.icache.overall_miss_rate::.cpu.inst     0.111111                       # miss rate for overall accesses
system.cpu.icache.overall_miss_rate::.switch_cpus.inst     0.000969                       # miss rate for overall accesses
system.cpu.icache.overall_miss_rate::total     0.000969                       # miss rate for overall accesses
system.cpu.icache.demand_avg_miss_latency::.switch_cpus.inst 20353.859985                       # average overall miss latency
system.cpu.icache.demand_avg_miss_latency::total 20352.717825                       # average overall miss latency
system.cpu.icache.overall_avg_miss_latency::.switch_cpus.inst 20353.859985                       # average overall miss latency
system.cpu.icache.overall_avg_miss_latency::total 20352.717825                       # average overall miss latency
system.cpu.icache.blocked_cycles::no_mshrs            0                       # number of cycles access was blocked
system.cpu.icache.blocked_cycles::no_targets            0                       # number of cycles access was blocked
system.cpu.icache.blocked::no_mshrs                 0                       # number of cycles access was blocked
system.cpu.icache.blocked::no_targets               0                       # number of cycles access was blocked
system.cpu.icache.avg_blocked_cycles::no_mshrs          nan                       # average number of cycles each access was blocked
system.cpu.icache.avg_blocked_cycles::no_targets          nan                       # average number of cycles each access was blocked
system.cpu.icache.writebacks::.writebacks        30720                       # number of writebacks
system.cpu.icache.writebacks::total             30720                       # number of writebacks
system.cpu.icache.demand_mshr_hits::.switch_cpus.inst         4409                       # number of demand (read+write) MSHR hits
system.cpu.icache.demand_mshr_hits::total         4409                       # number of demand (read+write) MSHR hits
system.cpu.icache.overall_mshr_hits::.switch_cpus.inst         4409                       # number of overall MSHR hits
system.cpu.icache.overall_mshr_hits::total         4409                       # number of overall MSHR hits
system.cpu.icache.demand_mshr_misses::.switch_cpus.inst        31230                       # number of demand (read+write) MSHR misses
system.cpu.icache.demand_mshr_misses::total        31230                       # number of demand (read+write) MSHR misses
system.cpu.icache.overall_mshr_misses::.switch_cpus.inst        31230                       # number of overall MSHR misses
system.cpu.icache.overall_mshr_misses::total        31230                       # number of overall MSHR misses
system.cpu.icache.demand_mshr_miss_latency::.switch_cpus.inst    645257763                       # number of demand (read+write) MSHR miss cycles
system.cpu.icache.demand_mshr_miss_latency::total    645257763                       # number of demand (read+write) MSHR miss cycles
system.cpu.icache.overall_mshr_miss_latency::.switch_cpus.inst    645257763                       # number of overall MSHR miss cycles
system.cpu.icache.overall_mshr_miss_latency::total    645257763                       # number of overall MSHR miss cycles
system.cpu.icache.demand_mshr_miss_rate::.switch_cpus.inst     0.000849                       # mshr miss rate for demand accesses
system.cpu.icache.demand_mshr_miss_rate::total     0.000849                       # mshr miss rate for demand accesses
system.cpu.icache.overall_mshr_miss_rate::.switch_cpus.inst     0.000849                       # mshr miss rate for overall accesses
system.cpu.icache.overall_mshr_miss_rate::total     0.000849                       # mshr miss rate for overall accesses
system.cpu.icache.demand_avg_mshr_miss_latency::.switch_cpus.inst 20661.471758                       # average overall mshr miss latency
system.cpu.icache.demand_avg_mshr_miss_latency::total 20661.471758                       # average overall mshr miss latency
system.cpu.icache.overall_avg_mshr_miss_latency::.switch_cpus.inst 20661.471758                       # average overall mshr miss latency
system.cpu.icache.overall_avg_mshr_miss_latency::total 20661.471758                       # average overall mshr miss latency
system.cpu.icache.replacements                  30720                       # number of replacements
system.cpu.icache.ReadReq_hits::.cpu.inst           16                       # number of ReadReq hits
system.cpu.icache.ReadReq_hits::.switch_cpus.inst     36732462                       # number of ReadReq hits
system.cpu.icache.ReadReq_hits::total        36732478                       # number of ReadReq hits
system.cpu.icache.ReadReq_misses::.cpu.inst            2                       # number of ReadReq misses
system.cpu.icache.ReadReq_misses::.switch_cpus.inst        35639                       # number of ReadReq misses
system.cpu.icache.ReadReq_misses::total         35641                       # number of ReadReq misses
system.cpu.icache.ReadReq_miss_latency::.switch_cpus.inst    725391216                       # number of ReadReq miss cycles
system.cpu.icache.ReadReq_miss_latency::total    725391216                       # number of ReadReq miss cycles
system.cpu.icache.ReadReq_accesses::.cpu.inst           18                       # number of ReadReq accesses(hits+misses)
system.cpu.icache.ReadReq_accesses::.switch_cpus.inst     36768101                       # number of ReadReq accesses(hits+misses)
system.cpu.icache.ReadReq_accesses::total     36768119                       # number of ReadReq accesses(hits+misses)
system.cpu.icache.ReadReq_miss_rate::.cpu.inst     0.111111                       # miss rate for ReadReq accesses
system.cpu.icache.ReadReq_miss_rate::.switch_cpus.inst     0.000969                       # miss rate for ReadReq accesses
system.cpu.icache.ReadReq_miss_rate::total     0.000969                       # miss rate for ReadReq accesses
system.cpu.icache.ReadReq_avg_miss_latency::.switch_cpus.inst 20353.859985                       # average ReadReq miss latency
system.cpu.icache.ReadReq_avg_miss_latency::total 20352.717825                       # average ReadReq miss latency
system.cpu.icache.ReadReq_mshr_hits::.switch_cpus.inst         4409                       # number of ReadReq MSHR hits
system.cpu.icache.ReadReq_mshr_hits::total         4409                       # number of ReadReq MSHR hits
system.cpu.icache.ReadReq_mshr_misses::.switch_cpus.inst        31230                       # number of ReadReq MSHR misses
system.cpu.icache.ReadReq_mshr_misses::total        31230                       # number of ReadReq MSHR misses
system.cpu.icache.ReadReq_mshr_miss_latency::.switch_cpus.inst    645257763                       # number of ReadReq MSHR miss cycles
system.cpu.icache.ReadReq_mshr_miss_latency::total    645257763                       # number of ReadReq MSHR miss cycles
system.cpu.icache.ReadReq_mshr_miss_rate::.switch_cpus.inst     0.000849                       # mshr miss rate for ReadReq accesses
system.cpu.icache.ReadReq_mshr_miss_rate::total     0.000849                       # mshr miss rate for ReadReq accesses
system.cpu.icache.ReadReq_avg_mshr_miss_latency::.switch_cpus.inst 20661.471758                       # average ReadReq mshr miss latency
system.cpu.icache.ReadReq_avg_mshr_miss_latency::total 20661.471758                       # average ReadReq mshr miss latency
system.cpu.icache.power_state.pwrStateResidencyTicks::UNDEFINED 18195445452555                       # Cumulative time (in ticks) in various power states
system.cpu.icache.tags.tagsinuse           508.269729                       # Cycle average of tags in use
system.cpu.icache.tags.total_refs            36763710                       # Total number of references to valid blocks.
system.cpu.icache.tags.sampled_refs             31232                       # Sample count of references to valid blocks.
system.cpu.icache.tags.avg_refs           1177.116739                       # Average number of references to valid blocks.
system.cpu.icache.tags.warmup_cycle      18146314371816                       # Cycle when the warmup percentage was hit.
system.cpu.icache.tags.occ_blocks::.cpu.inst     0.021784                       # Average occupied blocks per requestor
system.cpu.icache.tags.occ_blocks::.switch_cpus.inst   508.247945                       # Average occupied blocks per requestor
system.cpu.icache.tags.occ_percent::.cpu.inst     0.000043                       # Average percentage of cache occupancy
system.cpu.icache.tags.occ_percent::.switch_cpus.inst     0.992672                       # Average percentage of cache occupancy
system.cpu.icache.tags.occ_percent::total     0.992714                       # Average percentage of cache occupancy
system.cpu.icache.tags.occ_task_id_blocks::1024          512                       # Occupied blocks per task id
system.cpu.icache.tags.age_task_id_blocks_1024::2           28                       # Occupied blocks per task id
system.cpu.icache.tags.age_task_id_blocks_1024::3          462                       # Occupied blocks per task id
system.cpu.icache.tags.age_task_id_blocks_1024::4           22                       # Occupied blocks per task id
system.cpu.icache.tags.occ_task_id_percent::1024            1                       # Percentage of cache occupancy per task id
system.cpu.icache.tags.tag_accesses         294176184                       # Number of tag accesses
system.cpu.icache.tags.data_accesses        294176184                       # Number of data accesses
system.cpu.icache.tags.power_state.pwrStateResidencyTicks::UNDEFINED 18195445452555                       # Cumulative time (in ticks) in various power states
system.cpu.interrupts.clk_domain.clock           5328                       # Clock period in ticks
system.cpu.itb.rdAccesses                           0                       # TLB accesses on read requests
system.cpu.itb.wrAccesses                          18                       # TLB accesses on write requests
system.cpu.itb.rdMisses                             0                       # TLB misses on read requests
system.cpu.itb.wrMisses                             0                       # TLB misses on write requests
system.cpu.itb.walker.power_state.pwrStateResidencyTicks::UNDEFINED 18195445452555                       # Cumulative time (in ticks) in various power states
system.cpu.l2bus.trans_dist::ReadResp         1100246                       # Transaction distribution
system.cpu.l2bus.trans_dist::WritebackDirty      1873702                       # Transaction distribution
system.cpu.l2bus.trans_dist::WritebackClean       623449                       # Transaction distribution
system.cpu.l2bus.trans_dist::UpgradeReq         57299                       # Transaction distribution
system.cpu.l2bus.trans_dist::UpgradeResp        57299                       # Transaction distribution
system.cpu.l2bus.trans_dist::ReadExReq         576669                       # Transaction distribution
system.cpu.l2bus.trans_dist::ReadExResp        576669                       # Transaction distribution
system.cpu.l2bus.trans_dist::ReadSharedReq      1100246                       # Transaction distribution
system.cpu.l2bus.pkt_count_system.cpu.icache.mem_side_port::system.cpu.l2cache.cpu_side_port        93184                       # Packet count per connected requestor and responder (bytes)
system.cpu.l2bus.pkt_count_system.cpu.dcache.mem_side_port::system.cpu.l2cache.cpu_side_port      5051135                       # Packet count per connected requestor and responder (bytes)
system.cpu.l2bus.pkt_count::total             5144319                       # Packet count per connected requestor and responder (bytes)
system.cpu.l2bus.pkt_size_system.cpu.icache.mem_side_port::system.cpu.l2cache.cpu_side_port      3964928                       # Cumulative packet size per connected requestor and responder (bytes)
system.cpu.l2bus.pkt_size_system.cpu.dcache.mem_side_port::system.cpu.l2cache.cpu_side_port    210614656                       # Cumulative packet size per connected requestor and responder (bytes)
system.cpu.l2bus.pkt_size::total            214579584                       # Cumulative packet size per connected requestor and responder (bytes)
system.cpu.l2bus.snoops                        821260                       # Total snoops (count)
system.cpu.l2bus.snoopTraffic                52560640                       # Total snoop traffic (bytes)
system.cpu.l2bus.snoop_fanout::samples        2555474                       # Request fanout histogram
system.cpu.l2bus.snoop_fanout::mean          0.012595                       # Request fanout histogram
system.cpu.l2bus.snoop_fanout::stdev         0.111520                       # Request fanout histogram
system.cpu.l2bus.snoop_fanout::underflows            0      0.00%      0.00% # Request fanout histogram
system.cpu.l2bus.snoop_fanout::0              2523287     98.74%     98.74% # Request fanout histogram
system.cpu.l2bus.snoop_fanout::1                32187      1.26%    100.00% # Request fanout histogram
system.cpu.l2bus.snoop_fanout::2                    0      0.00%    100.00% # Request fanout histogram
system.cpu.l2bus.snoop_fanout::3                    0      0.00%    100.00% # Request fanout histogram
system.cpu.l2bus.snoop_fanout::overflows            0      0.00%    100.00% # Request fanout histogram
system.cpu.l2bus.snoop_fanout::min_value            0                       # Request fanout histogram
system.cpu.l2bus.snoop_fanout::max_value            1                       # Request fanout histogram
system.cpu.l2bus.snoop_fanout::total          2555474                       # Request fanout histogram
system.cpu.l2bus.power_state.pwrStateResidencyTicks::UNDEFINED 18195445452555                       # Cumulative time (in ticks) in various power states
system.cpu.l2bus.reqLayer0.occupancy       2251707039                       # Layer occupancy (ticks)
system.cpu.l2bus.reqLayer0.utilization            4.6                       # Layer utilization (%)
system.cpu.l2bus.respLayer0.occupancy        31295382                       # Layer occupancy (ticks)
system.cpu.l2bus.respLayer0.utilization           0.1                       # Layer utilization (%)
system.cpu.l2bus.respLayer1.occupancy      1663123522                       # Layer occupancy (ticks)
system.cpu.l2bus.respLayer1.utilization           3.4                       # Layer utilization (%)
system.cpu.l2cache.demand_hits::.switch_cpus.inst         3150                       # number of demand (read+write) hits
system.cpu.l2cache.demand_hits::.switch_cpus.data       879613                       # number of demand (read+write) hits
system.cpu.l2cache.demand_hits::total          882763                       # number of demand (read+write) hits
system.cpu.l2cache.overall_hits::.switch_cpus.inst         3150                       # number of overall hits
system.cpu.l2cache.overall_hits::.switch_cpus.data       879613                       # number of overall hits
system.cpu.l2cache.overall_hits::total         882763                       # number of overall hits
system.cpu.l2cache.demand_misses::.cpu.inst            2                       # number of demand (read+write) misses
system.cpu.l2cache.demand_misses::.cpu.data            2                       # number of demand (read+write) misses
system.cpu.l2cache.demand_misses::.switch_cpus.inst        28080                       # number of demand (read+write) misses
system.cpu.l2cache.demand_misses::.switch_cpus.data       766068                       # number of demand (read+write) misses
system.cpu.l2cache.demand_misses::total        794152                       # number of demand (read+write) misses
system.cpu.l2cache.overall_misses::.cpu.inst            2                       # number of overall misses
system.cpu.l2cache.overall_misses::.cpu.data            2                       # number of overall misses
system.cpu.l2cache.overall_misses::.switch_cpus.inst        28080                       # number of overall misses
system.cpu.l2cache.overall_misses::.switch_cpus.data       766068                       # number of overall misses
system.cpu.l2cache.overall_misses::total       794152                       # number of overall misses
system.cpu.l2cache.demand_miss_latency::.switch_cpus.inst    608628762                       # number of demand (read+write) miss cycles
system.cpu.l2cache.demand_miss_latency::.switch_cpus.data  30513325464                       # number of demand (read+write) miss cycles
system.cpu.l2cache.demand_miss_latency::total  31121954226                       # number of demand (read+write) miss cycles
system.cpu.l2cache.overall_miss_latency::.switch_cpus.inst    608628762                       # number of overall miss cycles
system.cpu.l2cache.overall_miss_latency::.switch_cpus.data  30513325464                       # number of overall miss cycles
system.cpu.l2cache.overall_miss_latency::total  31121954226                       # number of overall miss cycles
system.cpu.l2cache.demand_accesses::.cpu.inst            2                       # number of demand (read+write) accesses
system.cpu.l2cache.demand_accesses::.cpu.data            2                       # number of demand (read+write) accesses
system.cpu.l2cache.demand_accesses::.switch_cpus.inst        31230                       # number of demand (read+write) accesses
system.cpu.l2cache.demand_accesses::.switch_cpus.data      1645681                       # number of demand (read+write) accesses
system.cpu.l2cache.demand_accesses::total      1676915                       # number of demand (read+write) accesses
system.cpu.l2cache.overall_accesses::.cpu.inst            2                       # number of overall (read+write) accesses
system.cpu.l2cache.overall_accesses::.cpu.data            2                       # number of overall (read+write) accesses
system.cpu.l2cache.overall_accesses::.switch_cpus.inst        31230                       # number of overall (read+write) accesses
system.cpu.l2cache.overall_accesses::.switch_cpus.data      1645681                       # number of overall (read+write) accesses
system.cpu.l2cache.overall_accesses::total      1676915                       # number of overall (read+write) accesses
system.cpu.l2cache.demand_miss_rate::.cpu.inst            1                       # miss rate for demand accesses
system.cpu.l2cache.demand_miss_rate::.cpu.data            1                       # miss rate for demand accesses
system.cpu.l2cache.demand_miss_rate::.switch_cpus.inst     0.899135                       # miss rate for demand accesses
system.cpu.l2cache.demand_miss_rate::.switch_cpus.data     0.465502                       # miss rate for demand accesses
system.cpu.l2cache.demand_miss_rate::total     0.473579                       # miss rate for demand accesses
system.cpu.l2cache.overall_miss_rate::.cpu.inst            1                       # miss rate for overall accesses
system.cpu.l2cache.overall_miss_rate::.cpu.data            1                       # miss rate for overall accesses
system.cpu.l2cache.overall_miss_rate::.switch_cpus.inst     0.899135                       # miss rate for overall accesses
system.cpu.l2cache.overall_miss_rate::.switch_cpus.data     0.465502                       # miss rate for overall accesses
system.cpu.l2cache.overall_miss_rate::total     0.473579                       # miss rate for overall accesses
system.cpu.l2cache.demand_avg_miss_latency::.switch_cpus.inst 21674.813462                       # average overall miss latency
system.cpu.l2cache.demand_avg_miss_latency::.switch_cpus.data 39831.092624                       # average overall miss latency
system.cpu.l2cache.demand_avg_miss_latency::total 39188.913742                       # average overall miss latency
system.cpu.l2cache.overall_avg_miss_latency::.switch_cpus.inst 21674.813462                       # average overall miss latency
system.cpu.l2cache.overall_avg_miss_latency::.switch_cpus.data 39831.092624                       # average overall miss latency
system.cpu.l2cache.overall_avg_miss_latency::total 39188.913742                       # average overall miss latency
system.cpu.l2cache.blocked_cycles::no_mshrs            0                       # number of cycles access was blocked
system.cpu.l2cache.blocked_cycles::no_targets            0                       # number of cycles access was blocked
system.cpu.l2cache.blocked::no_mshrs                0                       # number of cycles access was blocked
system.cpu.l2cache.blocked::no_targets              0                       # number of cycles access was blocked
system.cpu.l2cache.avg_blocked_cycles::no_mshrs          nan                       # average number of cycles each access was blocked
system.cpu.l2cache.avg_blocked_cycles::no_targets          nan                       # average number of cycles each access was blocked
system.cpu.l2cache.writebacks::.writebacks       821260                       # number of writebacks
system.cpu.l2cache.writebacks::total           821260                       # number of writebacks
system.cpu.l2cache.demand_mshr_misses::.switch_cpus.inst        28080                       # number of demand (read+write) MSHR misses
system.cpu.l2cache.demand_mshr_misses::.switch_cpus.data       766068                       # number of demand (read+write) MSHR misses
system.cpu.l2cache.demand_mshr_misses::total       794148                       # number of demand (read+write) MSHR misses
system.cpu.l2cache.overall_mshr_misses::.switch_cpus.inst        28080                       # number of overall MSHR misses
system.cpu.l2cache.overall_mshr_misses::.switch_cpus.data       766068                       # number of overall MSHR misses
system.cpu.l2cache.overall_mshr_misses::total       794148                       # number of overall MSHR misses
system.cpu.l2cache.demand_mshr_miss_latency::.switch_cpus.inst    599278122                       # number of demand (read+write) MSHR miss cycles
[...]
system.switch_cpus.commit.numCommittedDist::0     60027671     42.35%     42.35% # Number of insts commited each cycle
system.switch_cpus.commit.numCommittedDist::1     13826352      9.75%     52.10% # Number of insts commited each cycle
system.switch_cpus.commit.numCommittedDist::2      3465226      2.44%     54.55% # Number of insts commited each cycle
system.switch_cpus.commit.numCommittedDist::3      7187212      5.07%     59.62% # Number of insts commited each cycle
system.switch_cpus.commit.numCommittedDist::4      5792477      4.09%     63.70% # Number of insts commited each cycle
system.switch_cpus.commit.numCommittedDist::5      4004627      2.83%     66.53% # Number of insts commited each cycle
system.switch_cpus.commit.numCommittedDist::6      2841951      2.00%     68.53% # Number of insts commited each cycle
system.switch_cpus.commit.numCommittedDist::7      2968641      2.09%     70.63% # Number of insts commited each cycle
system.switch_cpus.commit.numCommittedDist::8     41636873     29.37%    100.00% # Number of insts commited each cycle
system.switch_cpus.commit.numCommittedDist::overflows            0      0.00%    100.00% # Number of insts commited each cycle
system.switch_cpus.commit.numCommittedDist::min_value            0                       # Number of insts commited each cycle
system.switch_cpus.commit.numCommittedDist::max_value            8                       # Number of insts commited each cycle
system.switch_cpus.commit.numCommittedDist::total    141751030                       # Number of insts commited each cycle
system.switch_cpus.commit.instsCommitted    250000002                       # Number of instructions committed
system.switch_cpus.commit.opsCommitted      456438660                       # Number of ops (including micro ops) committed
system.switch_cpus.commit.memRefs            95535589                       # Number of memory references committed
system.switch_cpus.commit.loads              69324057                       # Number of loads committed
system.switch_cpus.commit.amos                      0                       # Number of atomic instructions committed
system.switch_cpus.commit.membars                1880                       # Number of memory barriers committed
system.switch_cpus.commit.branches           33082920                       # Number of branches committed
system.switch_cpus.commit.vector                    0                       # Number of committed Vector instructions.
system.switch_cpus.commit.floating          253088999                       # Number of committed floating point instructions.
system.switch_cpus.commit.integer           282469133                       # Number of committed integer instructions.
system.switch_cpus.commit.functionCalls       1781692                       # Number of function calls committed.
system.switch_cpus.commit.committedInstType_0::No_OpClass       157149      0.03%      0.03% # Class of committed instruction
system.switch_cpus.commit.committedInstType_0::IntAlu    206294733     45.20%     45.23% # Class of committed instruction
system.switch_cpus.commit.committedInstType_0::IntMult        10887      0.00%     45.23% # Class of committed instruction
system.switch_cpus.commit.committedInstType_0::IntDiv            0      0.00%     45.23% # Class of committed instruction
system.switch_cpus.commit.committedInstType_0::FloatAdd     65125216     14.27%     59.50% # Class of committed instruction
system.switch_cpus.commit.committedInstType_0::FloatCmp            0      0.00%     59.50% # Class of committed instruction
system.switch_cpus.commit.committedInstType_0::FloatCvt            0      0.00%     59.50% # Class of committed instruction
system.switch_cpus.commit.committedInstType_0::FloatMult            0      0.00%     59.50% # Class of committed instruction
system.switch_cpus.commit.committedInstType_0::FloatMultAcc            0      0.00%     59.50% # Class of committed instruction
system.switch_cpus.commit.committedInstType_0::FloatDiv            0      0.00%     59.50% # Class of committed instruction
system.switch_cpus.commit.committedInstType_0::FloatMisc            0      0.00%     59.50% # Class of committed instruction
system.switch_cpus.commit.committedInstType_0::FloatSqrt            0      0.00%     59.50% # Class of committed instruction
system.switch_cpus.commit.committedInstType_0::SimdAdd            0      0.00%     59.50% # Class of committed instruction
system.switch_cpus.commit.committedInstType_0::SimdAddAcc            0      0.00%     59.50% # Class of committed instruction
system.switch_cpus.commit.committedInstType_0::SimdAlu      8954648      1.96%     61.46% # Class of committed instruction
system.switch_cpus.commit.committedInstType_0::SimdCmp            0      0.00%     61.46% # Class of committed instruction
system.switch_cpus.commit.committedInstType_0::SimdCvt            0      0.00%     61.46% # Class of committed instruction
system.switch_cpus.commit.committedInstType_0::SimdMisc      5666285      1.24%     62.70% # Class of committed instruction
system.switch_cpus.commit.committedInstType_0::SimdMult            0      0.00%     62.70% # Class of committed instruction
system.switch_cpus.commit.committedInstType_0::SimdMultAcc            0      0.00%     62.70% # Class of committed instruction
system.switch_cpus.commit.committedInstType_0::SimdShift            0      0.00%     62.70% # Class of committed instruction
system.switch_cpus.commit.committedInstType_0::SimdShiftAcc            0      0.00%     62.70% # Class of committed instruction
system.switch_cpus.commit.committedInstType_0::SimdDiv            0      0.00%     62.70% # Class of committed instruction
system.switch_cpus.commit.committedInstType_0::SimdSqrt            0      0.00%     62.70% # Class of committed instruction
system.switch_cpus.commit.committedInstType_0::SimdFloatAdd     23219967      5.09%     67.79% # Class of committed instruction
system.switch_cpus.commit.committedInstType_0::SimdFloatAlu            0      0.00%     67.79% # Class of committed instruction
system.switch_cpus.commit.committedInstType_0::SimdFloatCmp       645181      0.14%     67.93% # Class of committed instruction
system.switch_cpus.commit.committedInstType_0::SimdFloatCvt     17698286      3.88%     71.81% # Class of committed instruction
system.switch_cpus.commit.committedInstType_0::SimdFloatDiv      5533644      1.21%     73.02% # Class of committed instruction
system.switch_cpus.commit.committedInstType_0::SimdFloatMisc            0      0.00%     73.02% # Class of committed instruction
system.switch_cpus.commit.committedInstType_0::SimdFloatMult     26610426      5.83%     78.85% # Class of committed instruction
system.switch_cpus.commit.committedInstType_0::SimdFloatMultAcc            0      0.00%     78.85% # Class of committed instruction
system.switch_cpus.commit.committedInstType_0::SimdFloatSqrt       986649      0.22%     79.07% # Class of committed instruction
system.switch_cpus.commit.committedInstType_0::SimdReduceAdd            0      0.00%     79.07% # Class of committed instruction
system.switch_cpus.commit.committedInstType_0::SimdReduceAlu            0      0.00%     79.07% # Class of committed instruction
system.switch_cpus.commit.committedInstType_0::SimdReduceCmp            0      0.00%     79.07% # Class of committed instruction
system.switch_cpus.commit.committedInstType_0::SimdFloatReduceAdd            0      0.00%     79.07% # Class of committed instruction
system.switch_cpus.commit.committedInstType_0::SimdFloatReduceCmp            0      0.00%     79.07% # Class of committed instruction
system.switch_cpus.commit.committedInstType_0::SimdAes            0      0.00%     79.07% # Class of committed instruction
system.switch_cpus.commit.committedInstType_0::SimdAesMix            0      0.00%     79.07% # Class of committed instruction
system.switch_cpus.commit.committedInstType_0::SimdSha1Hash            0      0.00%     79.07% # Class of committed instruction
system.switch_cpus.commit.committedInstType_0::SimdSha1Hash2            0      0.00%     79.07% # Class of committed instruction
system.switch_cpus.commit.committedInstType_0::SimdSha256Hash            0      0.00%     79.07% # Class of committed instruction
system.switch_cpus.commit.committedInstType_0::SimdSha256Hash2            0      0.00%     79.07% # Class of committed instruction
system.switch_cpus.commit.committedInstType_0::SimdShaSigma2            0      0.00%     79.07% # Class of committed instruction
system.switch_cpus.commit.committedInstType_0::SimdShaSigma3            0      0.00%     79.07% # Class of committed instruction
system.switch_cpus.commit.committedInstType_0::SimdPredAlu            0      0.00%     79.07% # Class of committed instruction
system.switch_cpus.commit.committedInstType_0::MemRead     15185749      3.33%     82.40% # Class of committed instruction
system.switch_cpus.commit.committedInstType_0::MemWrite      6521327      1.43%     83.83% # Class of committed instruction
system.switch_cpus.commit.committedInstType_0::FloatMemRead     54138308     11.86%     95.69% # Class of committed instruction
system.switch_cpus.commit.committedInstType_0::FloatMemWrite     19690205      4.31%    100.00% # Class of committed instruction
system.switch_cpus.commit.committedInstType_0::IprAccess            0      0.00%    100.00% # Class of committed instruction
system.switch_cpus.commit.committedInstType_0::InstPrefetch            0      0.00%    100.00% # Class of committed instruction
system.switch_cpus.commit.committedInstType_0::total    456438660                       # Class of committed instruction
system.switch_cpus.commit.commitEligibleSamples     41636873                       # number cycles where commit BW limit reached
system.switch_cpus.decode.idleCycles          8354348                       # Number of cycles decode is idle
system.switch_cpus.decode.blockedCycles      65226554                       # Number of cycles decode is blocked
system.switch_cpus.decode.runCycles          60698227                       # Number of cycles decode is running
system.switch_cpus.decode.unblockCycles      11900685                       # Number of cycles decode is unblocking
system.switch_cpus.decode.squashCycles         721552                       # Number of cycles decode is squashing
system.switch_cpus.decode.branchResolved     17521272                       # Number of times decode resolved a  branch
system.switch_cpus.decode.branchMispred          3900                       # Number of times decode detected a branch misprediction
system.switch_cpus.decode.decodedInsts      511574729                       # Number of instructions handled by decode
system.switch_cpus.decode.squashedInsts         20251                       # Number of squashed instructions handled by decode
system.switch_cpus.dtb.rdAccesses            77803935                       # TLB accesses on read requests
system.switch_cpus.dtb.wrAccesses            30619225                       # TLB accesses on write requests
system.switch_cpus.dtb.rdMisses                 24770                       # TLB misses on read requests
system.switch_cpus.dtb.wrMisses                 11417                       # TLB misses on write requests
system.switch_cpus.dtb.walker.power_state.pwrStateResidencyTicks::UNDEFINED 18195445452555                       # Cumulative time (in ticks) in various power states
system.switch_cpus.fetch.icacheStallCycles      1399644                       # Number of cycles fetch is stalled on an Icache miss
system.switch_cpus.fetch.insts              284451978                       # Number of instructions fetch has processed
system.switch_cpus.fetch.branches            38122181                       # Number of branches that fetch encountered
system.switch_cpus.fetch.predictedBranches     22056449                       # Number of branches that fetch has predicted taken
system.switch_cpus.fetch.cycles             144761421                       # Number of cycles fetch has run and was not squashing or blocked
system.switch_cpus.fetch.squashCycles         1450778                       # Number of cycles fetch has spent squashing
system.switch_cpus.fetch.miscStallCycles         1866                       # Number of cycles fetch has spent waiting on interrupts,or bad addresses, or out of MSHRs
system.switch_cpus.fetch.pendingTrapStallCycles        13050                       # Number of stall cycles due to pending traps
system.switch_cpus.fetch.cacheLines          36768101                       # Number of cache lines fetched
system.switch_cpus.fetch.icacheSquashes         10899                       # Number of outstanding Icache misses that were squashed
system.switch_cpus.fetch.nisnDist::samples    146901370                       # Number of instructions fetched each cycle (Total)
system.switch_cpus.fetch.nisnDist::mean      3.567141                       # Number of instructions fetched each cycle (Total)
system.switch_cpus.fetch.nisnDist::stdev     3.526155                       # Number of instructions fetched each cycle (Total)
system.switch_cpus.fetch.nisnDist::underflows            0      0.00%      0.00% # Number of instructions fetched each cycle (Total)
system.switch_cpus.fetch.nisnDist::0         61130306     41.61%     41.61% # Number of instructions fetched each cycle (Total)
system.switch_cpus.fetch.nisnDist::1          5044233      3.43%     45.05% # Number of instructions fetched each cycle (Total)
system.switch_cpus.fetch.nisnDist::2          5067069      3.45%     48.50% # Number of instructions fetched each cycle (Total)
system.switch_cpus.fetch.nisnDist::3          8278797      5.64%     54.13% # Number of instructions fetched each cycle (Total)
system.switch_cpus.fetch.nisnDist::4          5106020      3.48%     57.61% # Number of instructions fetched each cycle (Total)
system.switch_cpus.fetch.nisnDist::5          6239590      4.25%     61.86% # Number of instructions fetched each cycle (Total)
system.switch_cpus.fetch.nisnDist::6          5269833      3.59%     65.44% # Number of instructions fetched each cycle (Total)
system.switch_cpus.fetch.nisnDist::7          5362114      3.65%     69.09% # Number of instructions fetched each cycle (Total)
system.switch_cpus.fetch.nisnDist::8         45403408     30.91%    100.00% # Number of instructions fetched each cycle (Total)
system.switch_cpus.fetch.nisnDist::overflows            0      0.00%    100.00% # Number of instructions fetched each cycle (Total)
system.switch_cpus.fetch.nisnDist::min_value            0                       # Number of instructions fetched each cycle (Total)
system.switch_cpus.fetch.nisnDist::max_value            8                       # Number of instructions fetched each cycle (Total)
system.switch_cpus.fetch.nisnDist::total    146901370                       # Number of instructions fetched each cycle (Total)
system.switch_cpus.fetch.branchRate          0.258384                       # Number of branch fetches per cycle
system.switch_cpus.fetch.rate                1.927955                       # Number of inst fetches per cycle
system.switch_cpus.itb.rdAccesses                   0                       # TLB accesses on read requests
system.switch_cpus.itb.wrAccesses            36770268                       # TLB accesses on write requests
system.switch_cpus.itb.rdMisses                     0                       # TLB misses on read requests
system.switch_cpus.itb.wrMisses                  2237                       # TLB misses on write requests
system.switch_cpus.itb.walker.power_state.pwrStateResidencyTicks::UNDEFINED 18195445452555                       # Cumulative time (in ticks) in various power states
system.switch_cpus.lsq0.forwLoads             5257523                       # Number of loads that had data forwarded from stores
system.switch_cpus.lsq0.squashedLoads         7686984                       # Number of loads squashed
system.switch_cpus.lsq0.ignoredResponses         1428                       # Number of memory responses ignored because the instruction is squashed
system.switch_cpus.lsq0.memOrderViolation         9786                       # Number of memory ordering violations
system.switch_cpus.lsq0.squashedStores        6528191                       # Number of stores squashed
system.switch_cpus.lsq0.rescheduledLoads       990348                       # Number of loads that were rescheduled
system.switch_cpus.lsq0.blockedByCache           8557                       # Number of times an access to memory failed due to the cache being blocked
system.switch_cpus.power_state.pwrStateResidencyTicks::OFF  49131081072                       # Cumulative time (in ticks) in various power states
system.switch_cpus.rename.squashCycles         721552                       # Number of cycles rename is squashing
system.switch_cpus.rename.idleCycles         13065459                       # Number of cycles rename is idle
system.switch_cpus.rename.blockCycles        27051710                       # Number of cycles rename is blocking
system.switch_cpus.rename.serializeStallCycles            0                       # count of cycles rename stalledfor serializing inst
system.switch_cpus.rename.runCycles          67502104                       # Number of cycles rename is running
system.switch_cpus.rename.unblockCycles      38560541                       # Number of cycles rename is unblocking
system.switch_cpus.rename.renamedInsts      506502701                       # Number of instructions processed by rename
system.switch_cpus.rename.ROBFullEvents        976872                       # Number of times rename has blocked due to ROB full
system.switch_cpus.rename.IQFullEvents       10762604                       # Number of times rename has blocked due to IQ full
system.switch_cpus.rename.LQFullEvents        9029387                       # Number of times rename has blocked due to LQ full
system.switch_cpus.rename.SQFullEvents       15574215                       # Number of times rename has blocked due to SQ full
system.switch_cpus.rename.renamedOperands    535603404                       # Number of destination operands rename has renamed
system.switch_cpus.rename.lookups          1163216079                       # Number of register rename lookups that rename has made
system.switch_cpus.rename.intLookups        434731006                       # Number of integer rename lookups
system.switch_cpus.rename.fpLookups         322877900                       # Number of floating rename lookups
system.switch_cpus.rename.committedMaps     486355501                       # Number of HB maps that are committed
system.switch_cpus.rename.undoneMaps         49247869                       # Number of HB maps that are undone due to squashing
system.switch_cpus.rename.serializing               0                       # count of serializing insts renamed
system.switch_cpus.rename.tempSerializing            0                       # count of temporary serializing insts renamed
system.switch_cpus.rename.skidInsts          53398074                       # count of insts added to the skid buffer
system.switch_cpus.rob.reads                592932272                       # The number of ROB reads
system.switch_cpus.rob.writes               994968961                       # The number of ROB writes
system.switch_cpus.thread0.numInsts         250000002                       # Number of Instructions committed
system.switch_cpus.thread0.numOps           456438660                       # Number of Ops committed
system.switch_cpus.thread0.numMemRefs               0                       # Number of Memory References
system.voltage_domain.voltage                       1                       # Voltage in Volts

---------- End Simulation Statistics   ----------
