
---------- Begin Simulation Statistics ----------
final_tick                               16948178515008                       # Number of ticks from beginning of simulation (restored from checkpoints and never reset)
host_inst_rate                                  71060                       # Simulator instruction rate (inst/s)
host_mem_usage                               17039852                       # Number of bytes of host memory used
host_op_rate                                   122397                       # Simulator op (including micro ops) rate (op/s)
host_seconds                                 14047.07                       # Real time elapsed on the host
host_tick_rate                                9470134                       # Simulator tick rate (ticks/s)
sim_freq                                 1000000000000                       # Frequency of simulated ticks
sim_insts                                   998188593                       # Number of instructions simulated
sim_ops                                    1719323776                       # Number of ops (including micro ops) simulated
sim_seconds                                  0.133028                       # Number of seconds simulated
sim_ticks                                133027646859                       # Number of ticks simulated
system.cpu0.Branches                                2                       # Number of branches fetched
system.cpu0.committedInsts                         19                       # Number of instructions committed
system.cpu0.committedOps                           25                       # Number of ops (including micro ops) committed
system.cpu0.idle_fraction                           0                       # Percentage of idle cycles
system.cpu0.l2bus.snoop_filter.hit_multi_requests          444                       # Number of requests hitting in the snoop filter with multiple (>1) holders of the requested data.
system.cpu0.l2bus.snoop_filter.hit_multi_snoops          126                       # Number of snoops hitting in the snoop filter with multiple (>1) holders of the requested data.
system.cpu0.l2bus.snoop_filter.hit_single_requests      8443759                       # Number of requests hitting in the snoop filter with a single holder of the requested data.
system.cpu0.l2bus.snoop_filter.hit_single_snoops         2581                       # Number of snoops hitting in the snoop filter with a single holder of the requested data.
system.cpu0.l2bus.snoop_filter.tot_requests     16829825                       # Total number of requests made to the snoop filter.
system.cpu0.l2bus.snoop_filter.tot_snoops         2707                       # Total number of snoops made to the snoop filter.
system.cpu0.mmucache.mmubus.snoop_filter.hit_multi_requests            0                       # Number of requests hitting in the snoop filter with multiple (>1) holders of the requested data.
system.cpu0.mmucache.mmubus.snoop_filter.hit_multi_snoops            0                       # Number of snoops hitting in the snoop filter with multiple (>1) holders of the requested data.
system.cpu0.mmucache.mmubus.snoop_filter.hit_single_requests            0                       # Number of requests hitting in the snoop filter with a single holder of the requested data.
system.cpu0.mmucache.mmubus.snoop_filter.hit_single_snoops            0                       # Number of snoops hitting in the snoop filter with a single holder of the requested data.
system.cpu0.mmucache.mmubus.snoop_filter.tot_requests            0                       # Total number of requests made to the snoop filter.
system.cpu0.mmucache.mmubus.snoop_filter.tot_snoops            0                       # Total number of snoops made to the snoop filter.
system.cpu0.not_idle_fraction                       1                       # Percentage of non-idle cycles
system.cpu0.numCycles                              30                       # number of cpu cycles simulated
system.cpu0.numWorkItemsCompleted                   0                       # number of work items this cpu completed
system.cpu0.numWorkItemsStarted                     0                       # number of work items this cpu started
system.cpu0.num_busy_cycles                        30                       # Number of busy cycles
system.cpu0.num_cc_register_reads                  13                       # number of times the CC registers were read
system.cpu0.num_cc_register_writes                 12                       # number of times the CC registers were written
system.cpu0.num_conditional_control_insts            2                       # number of instructions that are conditional controls
system.cpu0.num_fp_alu_accesses                     0                       # Number of float alu accesses
system.cpu0.num_fp_insts                            0                       # number of float instructions
system.cpu0.num_fp_register_reads                   0                       # number of times the floating registers were read
system.cpu0.num_fp_register_writes                  0                       # number of times the floating registers were written
system.cpu0.num_func_calls                          0                       # number of times a function call or return occured
system.cpu0.num_idle_cycles                         0                       # Number of idle cycles
system.cpu0.num_int_alu_accesses                   25                       # Number of integer alu accesses
system.cpu0.num_int_insts                          25                       # number of integer instructions
system.cpu0.num_int_register_reads                 59                       # number of times the integer registers were read
system.cpu0.num_int_register_writes                20                       # number of times the integer registers were written
system.cpu0.num_load_insts                          7                       # Number of load instructions
system.cpu0.num_mem_refs                           10                       # number of memory refs
system.cpu0.num_store_insts                         3                       # Number of store instructions
system.cpu0.num_vec_alu_accesses                    0                       # Number of vector alu accesses
system.cpu0.num_vec_insts                           0                       # number of vector instructions
system.cpu0.num_vec_register_reads                  0                       # number of times the vector registers were read
system.cpu0.num_vec_register_writes                 0                       # number of times the vector registers were written
system.cpu0.op_class::No_OpClass                    0      0.00%      0.00% # Class of executed instruction
system.cpu0.op_class::IntAlu                       15     60.00%     60.00% # Class of executed instruction
system.cpu0.op_class::IntMult                       0      0.00%     60.00% # Class of executed instruction
system.cpu0.op_class::IntDiv                        0      0.00%     60.00% # Class of executed instruction
system.cpu0.op_class::FloatAdd                      0      0.00%     60.00% # Class of executed instruction
system.cpu0.op_class::FloatCmp                      0      0.00%     60.00% # Class of executed instruction
system.cpu0.op_class::FloatCvt                      0      0.00%     60.00% # Class of executed instruction
system.cpu0.op_class::FloatMult                     0      0.00%     60.00% # Class of executed instruction
system.cpu0.op_class::FloatMultAcc                  0      0.00%     60.00% # Class of executed instruction
system.cpu0.op_class::FloatDiv                      0      0.00%     60.00% # Class of executed instruction
system.cpu0.op_class::FloatMisc                     0      0.00%     60.00% # Class of executed instruction
system.cpu0.op_class::FloatSqrt                     0      0.00%     60.00% # Class of executed instruction
system.cpu0.op_class::SimdAdd                       0      0.00%     60.00% # Class of executed instruction
system.cpu0.op_class::SimdAddAcc                    0      0.00%     60.00% # Class of executed instruction
system.cpu0.op_class::SimdAlu                       0      0.00%     60.00% # Class of executed instruction
system.cpu0.op_class::SimdCmp                       0      0.00%     60.00% # Class of executed instruction
system.cpu0.op_class::SimdCvt                       0      0.00%     60.00% # Class of executed instruction
system.cpu0.op_class::SimdMisc                      0      0.00%     60.00% # Class of executed instruction
system.cpu0.op_class::SimdMult                      0      0.00%     60.00% # Class of executed instruction
system.cpu0.op_class::SimdMultAcc                   0      0.00%     60.00% # Class of executed instruction
system.cpu0.op_class::SimdShift                     0      0.00%     60.00% # Class of executed instruction
system.cpu0.op_class::SimdShiftAcc                  0      0.00%     60.00% # Class of executed instruction
system.cpu0.op_class::SimdDiv                       0      0.00%     60.00% # Class of executed instruction
system.cpu0.op_class::SimdSqrt                      0      0.00%     60.00% # Class of executed instruction
system.cpu0.op_class::SimdFloatAdd                  0      0.00%     60.00% # Class of executed instruction
system.cpu0.op_class::SimdFloatAlu                  0      0.00%     60.00% # Class of executed instruction
system.cpu0.op_class::SimdFloatCmp                  0      0.00%     60.00% # Class of executed instruction
system.cpu0.op_class::SimdFloatCvt                  0      0.00%     60.00% # Class of executed instruction
system.cpu0.op_class::SimdFloatDiv                  0      0.00%     60.00% # Class of executed instruction
system.cpu0.op_class::SimdFloatMisc                 0      0.00%     60.00% # Class of executed instruction
system.cpu0.op_class::SimdFloatMult                 0      0.00%     60.00% # Class of executed instruction
system.cpu0.op_class::SimdFloatMultAcc              0      0.00%     60.00% # Class of executed instruction
system.cpu0.op_class::SimdFloatSqrt                 0      0.00%     60.00% # Class of executed instruction
system.cpu0.op_class::SimdReduceAdd                 0      0.00%     60.00% # Class of executed instruction
system.cpu0.op_class::SimdReduceAlu                 0      0.00%     60.00% # Class of executed instruction
system.cpu0.op_class::SimdReduceCmp                 0      0.00%     60.00% # Class of executed instruction
system.cpu0.op_class::SimdFloatReduceAdd            0      0.00%     60.00% # Class of executed instruction
system.cpu0.op_class::SimdFloatReduceCmp            0      0.00%     60.00% # Class of executed instruction
system.cpu0.op_class::SimdAes                       0      0.00%     60.00% # Class of executed instruction
system.cpu0.op_class::SimdAesMix                    0      0.00%     60.00% # Class of executed instruction
system.cpu0.op_class::SimdSha1Hash                  0      0.00%     60.00% # Class of executed instruction
system.cpu0.op_class::SimdSha1Hash2                 0      0.00%     60.00% # Class of executed instruction
system.cpu0.op_class::SimdSha256Hash                0      0.00%     60.00% # Class of executed instruction
system.cpu0.op_class::SimdSha256Hash2               0      0.00%     60.00% # Class of executed instruction
system.cpu0.op_class::SimdShaSigma2                 0      0.00%     60.00% # Class of executed instruction
system.cpu0.op_class::SimdShaSigma3                 0      0.00%     60.00% # Class of executed instruction
system.cpu0.op_class::SimdPredAlu                   0      0.00%     60.00% # Class of executed instruction
system.cpu0.op_class::MemRead                       7     28.00%     88.00% # Class of executed instruction
system.cpu0.op_class::MemWrite                      3     12.00%    100.00% # Class of executed instruction
system.cpu0.op_class::FloatMemRead                  0      0.00%    100.00% # Class of executed instruction
system.cpu0.op_class::FloatMemWrite                 0      0.00%    100.00% # Class of executed instruction
system.cpu0.op_class::IprAccess                     0      0.00%    100.00% # Class of executed instruction
system.cpu0.op_class::InstPrefetch                  0      0.00%    100.00% # Class of executed instruction
system.cpu0.op_class::total                        25                       # Class of executed instruction
system.cpu0.workload.numSyscalls                    0                       # Number of system calls
system.cpu1.Branches                                2                       # Number of branches fetched
system.cpu1.committedInsts                         19                       # Number of instructions committed
system.cpu1.committedOps                           25                       # Number of ops (including micro ops) committed
system.cpu1.idle_fraction                           0                       # Percentage of idle cycles
system.cpu1.l2bus.snoop_filter.hit_multi_requests          469                       # Number of requests hitting in the snoop filter with multiple (>1) holders of the requested data.
system.cpu1.l2bus.snoop_filter.hit_multi_snoops          122                       # Number of snoops hitting in the snoop filter with multiple (>1) holders of the requested data.
system.cpu1.l2bus.snoop_filter.hit_single_requests      8434143                       # Number of requests hitting in the snoop filter with a single holder of the requested data.
system.cpu1.l2bus.snoop_filter.hit_single_snoops         3335                       # Number of snoops hitting in the snoop filter with a single holder of the requested data.
system.cpu1.l2bus.snoop_filter.tot_requests     16806729                       # Total number of requests made to the snoop filter.
system.cpu1.l2bus.snoop_filter.tot_snoops         3457                       # Total number of snoops made to the snoop filter.
system.cpu1.mmucache.mmubus.snoop_filter.hit_multi_requests            0                       # Number of requests hitting in the snoop filter with multiple (>1) holders of the requested data.
system.cpu1.mmucache.mmubus.snoop_filter.hit_multi_snoops            0                       # Number of snoops hitting in the snoop filter with multiple (>1) holders of the requested data.
system.cpu1.mmucache.mmubus.snoop_filter.hit_single_requests            0                       # Number of requests hitting in the snoop filter with a single holder of the requested data.
system.cpu1.mmucache.mmubus.snoop_filter.hit_single_snoops            0                       # Number of snoops hitting in the snoop filter with a single holder of the requested data.
system.cpu1.mmucache.mmubus.snoop_filter.tot_requests            0                       # Total number of requests made to the snoop filter.
system.cpu1.mmucache.mmubus.snoop_filter.tot_snoops            0                       # Total number of snoops made to the snoop filter.
system.cpu1.not_idle_fraction                       1                       # Percentage of non-idle cycles
system.cpu1.numCycles                              30                       # number of cpu cycles simulated
system.cpu1.numWorkItemsCompleted                   0                       # number of work items this cpu completed
system.cpu1.numWorkItemsStarted                     0                       # number of work items this cpu started
system.cpu1.num_busy_cycles                        30                       # Number of busy cycles
system.cpu1.num_cc_register_reads                  13                       # number of times the CC registers were read
system.cpu1.num_cc_register_writes                 12                       # number of times the CC registers were written
system.cpu1.num_conditional_control_insts            2                       # number of instructions that are conditional controls
system.cpu1.num_fp_alu_accesses                     0                       # Number of float alu accesses
system.cpu1.num_fp_insts                            0                       # number of float instructions
system.cpu1.num_fp_register_reads                   0                       # number of times the floating registers were read
system.cpu1.num_fp_register_writes                  0                       # number of times the floating registers were written
system.cpu1.num_func_calls                          0                       # number of times a function call or return occured
system.cpu1.num_idle_cycles                         0                       # Number of idle cycles
system.cpu1.num_int_alu_accesses                   25                       # Number of integer alu accesses
system.cpu1.num_int_insts                          25                       # number of integer instructions
system.cpu1.num_int_register_reads                 59                       # number of times the integer registers were read
system.cpu1.num_int_register_writes                20                       # number of times the integer registers were written
system.cpu1.num_load_insts                          7                       # Number of load instructions
system.cpu1.num_mem_refs                           10                       # number of memory refs
system.cpu1.num_store_insts                         3                       # Number of store instructions
system.cpu1.num_vec_alu_accesses                    0                       # Number of vector alu accesses
system.cpu1.num_vec_insts                           0                       # number of vector instructions
system.cpu1.num_vec_register_reads                  0                       # number of times the vector registers were read
system.cpu1.num_vec_register_writes                 0                       # number of times the vector registers were written
system.cpu1.op_class::No_OpClass                    0      0.00%      0.00% # Class of executed instruction
system.cpu1.op_class::IntAlu                       15     60.00%     60.00% # Class of executed instruction
system.cpu1.op_class::IntMult                       0      0.00%     60.00% # Class of executed instruction
system.cpu1.op_class::IntDiv                        0      0.00%     60.00% # Class of executed instruction
system.cpu1.op_class::FloatAdd                      0      0.00%     60.00% # Class of executed instruction
system.cpu1.op_class::FloatCmp                      0      0.00%     60.00% # Class of executed instruction
system.cpu1.op_class::FloatCvt                      0      0.00%     60.00% # Class of executed instruction
system.cpu1.op_class::FloatMult                     0      0.00%     60.00% # Class of executed instruction
system.cpu1.op_class::FloatMultAcc                  0      0.00%     60.00% # Class of executed instruction
system.cpu1.op_class::FloatDiv                      0      0.00%     60.00% # Class of executed instruction
system.cpu1.op_class::FloatMisc                     0      0.00%     60.00% # Class of executed instruction
system.cpu1.op_class::FloatSqrt                     0      0.00%     60.00% # Class of executed instruction
system.cpu1.op_class::SimdAdd                       0      0.00%     60.00% # Class of executed instruction
system.cpu1.op_class::SimdAddAcc                    0      0.00%     60.00% # Class of executed instruction
system.cpu1.op_class::SimdAlu                       0      0.00%     60.00% # Class of executed instruction
system.cpu1.op_class::SimdCmp                       0      0.00%     60.00% # Class of executed instruction
system.cpu1.op_class::SimdCvt                       0      0.00%     60.00% # Class of executed instruction
system.cpu1.op_class::SimdMisc                      0      0.00%     60.00% # Class of executed instruction
system.cpu1.op_class::SimdMult                      0      0.00%     60.00% # Class of executed instruction
system.cpu1.op_class::SimdMultAcc                   0      0.00%     60.00% # Class of executed instruction
system.cpu1.op_class::SimdShift                     0      0.00%     60.00% # Class of executed instruction
system.cpu1.op_class::SimdShiftAcc                  0      0.00%     60.00% # Class of executed instruction
system.cpu1.op_class::SimdDiv                       0      0.00%     60.00% # Class of executed instruction
system.cpu1.op_class::SimdSqrt                      0      0.00%     60.00% # Class of executed instruction
system.cpu1.op_class::SimdFloatAdd                  0      0.00%     60.00% # Class of executed instruction
system.cpu1.op_class::SimdFloatAlu                  0      0.00%     60.00% # Class of executed instruction
system.cpu1.op_class::SimdFloatCmp                  0      0.00%     60.00% # Class of executed instruction
system.cpu1.op_class::SimdFloatCvt                  0      0.00%     60.00% # Class of executed instruction
system.cpu1.op_class::SimdFloatDiv                  0      0.00%     60.00% # Class of executed instruction
system.cpu1.op_class::SimdFloatMisc                 0      0.00%     60.00% # Class of executed instruction
system.cpu1.op_class::SimdFloatMult                 0      0.00%     60.00% # Class of executed instruction
system.cpu1.op_class::SimdFloatMultAcc              0      0.00%     60.00% # Class of executed instruction
system.cpu1.op_class::SimdFloatSqrt                 0      0.00%     60.00% # Class of executed instruction
system.cpu1.op_class::SimdReduceAdd                 0      0.00%     60.00% # Class of executed instruction
system.cpu1.op_class::SimdReduceAlu                 0      0.00%     60.00% # Class of executed instruction
system.cpu1.op_class::SimdReduceCmp                 0      0.00%     60.00% # Class of executed instruction
system.cpu1.op_class::SimdFloatReduceAdd            0      0.00%     60.00% # Class of executed instruction
system.cpu1.op_class::SimdFloatReduceCmp            0      0.00%     60.00% # Class of executed instruction
system.cpu1.op_class::SimdAes                       0      0.00%     60.00% # Class of executed instruction
system.cpu1.op_class::SimdAesMix                    0      0.00%     60.00% # Class of executed instruction
system.cpu1.op_class::SimdSha1Hash                  0      0.00%     60.00% # Class of executed instruction
system.cpu1.op_class::SimdSha1Hash2                 0      0.00%     60.00% # Class of executed instruction
system.cpu1.op_class::SimdSha256Hash                0      0.00%     60.00% # Class of executed instruction
system.cpu1.op_class::SimdSha256Hash2               0      0.00%     60.00% # Class of executed instruction
system.cpu1.op_class::SimdShaSigma2                 0      0.00%     60.00% # Class of executed instruction
system.cpu1.op_class::SimdShaSigma3                 0      0.00%     60.00% # Class of executed instruction
system.cpu1.op_class::SimdPredAlu                   0      0.00%     60.00% # Class of executed instruction
system.cpu1.op_class::MemRead                       7     28.00%     88.00% # Class of executed instruction
system.cpu1.op_class::MemWrite                      3     12.00%    100.00% # Class of executed instruction
system.cpu1.op_class::FloatMemRead                  0      0.00%    100.00% # Class of executed instruction
system.cpu1.op_class::FloatMemWrite                 0      0.00%    100.00% # Class of executed instruction
system.cpu1.op_class::IprAccess                     0      0.00%    100.00% # Class of executed instruction
system.cpu1.op_class::InstPrefetch                  0      0.00%    100.00% # Class of executed instruction
system.cpu1.op_class::total                        25                       # Class of executed instruction
system.cpu1.workload.numSyscalls                    0                       # Number of system calls
system.cpu2.Branches                                2                       # Number of branches fetched
system.cpu2.committedInsts                         19                       # Number of instructions committed
system.cpu2.committedOps                           25                       # Number of ops (including micro ops) committed
system.cpu2.idle_fraction                           0                       # Percentage of idle cycles
system.cpu2.l2bus.snoop_filter.hit_multi_requests          392                       # Number of requests hitting in the snoop filter with multiple (>1) holders of the requested data.
system.cpu2.l2bus.snoop_filter.hit_multi_snoops           87                       # Number of snoops hitting in the snoop filter with multiple (>1) holders of the requested data.
system.cpu2.l2bus.snoop_filter.hit_single_requests      8467927                       # Number of requests hitting in the snoop filter with a single holder of the requested data.
system.cpu2.l2bus.snoop_filter.hit_single_snoops         2587                       # Number of snoops hitting in the snoop filter with a single holder of the requested data.
system.cpu2.l2bus.snoop_filter.tot_requests     16877911                       # Total number of requests made to the snoop filter.
system.cpu2.l2bus.snoop_filter.tot_snoops         2674                       # Total number of snoops made to the snoop filter.
system.cpu2.mmucache.mmubus.snoop_filter.hit_multi_requests            0                       # Number of requests hitting in the snoop filter with multiple (>1) holders of the requested data.
system.cpu2.mmucache.mmubus.snoop_filter.hit_multi_snoops            0                       # Number of snoops hitting in the snoop filter with multiple (>1) holders of the requested data.
system.cpu2.mmucache.mmubus.snoop_filter.hit_single_requests            0                       # Number of requests hitting in the snoop filter with a single holder of the requested data.
system.cpu2.mmucache.mmubus.snoop_filter.hit_single_snoops            0                       # Number of snoops hitting in the snoop filter with a single holder of the requested data.
system.cpu2.mmucache.mmubus.snoop_filter.tot_requests            0                       # Total number of requests made to the snoop filter.
system.cpu2.mmucache.mmubus.snoop_filter.tot_snoops            0                       # Total number of snoops made to the snoop filter.
system.cpu2.not_idle_fraction                       1                       # Percentage of non-idle cycles
system.cpu2.numCycles                              30                       # number of cpu cycles simulated
system.cpu2.numWorkItemsCompleted                   0                       # number of work items this cpu completed
system.cpu2.numWorkItemsStarted                     0                       # number of work items this cpu started
system.cpu2.num_busy_cycles                        30                       # Number of busy cycles
system.cpu2.num_cc_register_reads                  13                       # number of times the CC registers were read
system.cpu2.num_cc_register_writes                 12                       # number of times the CC registers were written
system.cpu2.num_conditional_control_insts            2                       # number of instructions that are conditional controls
system.cpu2.num_fp_alu_accesses                     0                       # Number of float alu accesses
system.cpu2.num_fp_insts                            0                       # number of float instructions
system.cpu2.num_fp_register_reads                   0                       # number of times the floating registers were read
system.cpu2.num_fp_register_writes                  0                       # number of times the floating registers were written
system.cpu2.num_func_calls                          0                       # number of times a function call or return occured
system.cpu2.num_idle_cycles                         0                       # Number of idle cycles
system.cpu2.num_int_alu_accesses                   25                       # Number of integer alu accesses
system.cpu2.num_int_insts                          25                       # number of integer instructions
system.cpu2.num_int_register_reads                 59                       # number of times the integer registers were read
system.cpu2.num_int_register_writes                20                       # number of times the integer registers were written
system.cpu2.num_load_insts                          7                       # Number of load instructions
system.cpu2.num_mem_refs                           10                       # number of memory refs
system.cpu2.num_store_insts                         3                       # Number of store instructions
system.cpu2.num_vec_alu_accesses                    0                       # Number of vector alu accesses
system.cpu2.num_vec_insts                           0                       # number of vector instructions
system.cpu2.num_vec_register_reads                  0                       # number of times the vector registers were read
system.cpu2.num_vec_register_writes                 0                       # number of times the vector registers were written
system.cpu2.op_class::No_OpClass                    0      0.00%      0.00% # Class of executed instruction
system.cpu2.op_class::IntAlu                       15     60.00%     60.00% # Class of executed instruction
system.cpu2.op_class::IntMult                       0      0.00%     60.00% # Class of executed instruction
system.cpu2.op_class::IntDiv                        0      0.00%     60.00% # Class of executed instruction
system.cpu2.op_class::FloatAdd                      0      0.00%     60.00% # Class of executed instruction
system.cpu2.op_class::FloatCmp                      0      0.00%     60.00% # Class of executed instruction
system.cpu2.op_class::FloatCvt                      0      0.00%     60.00% # Class of executed instruction
system.cpu2.op_class::FloatMult                     0      0.00%     60.00% # Class of executed instruction
system.cpu2.op_class::FloatMultAcc                  0      0.00%     60.00% # Class of executed instruction
system.cpu2.op_class::FloatDiv                      0      0.00%     60.00% # Class of executed instruction
system.cpu2.op_class::FloatMisc                     0      0.00%     60.00% # Class of executed instruction
system.cpu2.op_class::FloatSqrt                     0      0.00%     60.00% # Class of executed instruction
system.cpu2.op_class::SimdAdd                       0      0.00%     60.00% # Class of executed instruction
system.cpu2.op_class::SimdAddAcc                    0      0.00%     60.00% # Class of executed instruction
system.cpu2.op_class::SimdAlu                       0      0.00%     60.00% # Class of executed instruction
system.cpu2.op_class::SimdCmp                       0      0.00%     60.00% # Class of executed instruction
system.cpu2.op_class::SimdCvt                       0      0.00%     60.00% # Class of executed instruction
system.cpu2.op_class::SimdMisc                      0      0.00%     60.00% # Class of executed instruction
system.cpu2.op_class::SimdMult                      0      0.00%     60.00% # Class of executed instruction
system.cpu2.op_class::SimdMultAcc                   0      0.00%     60.00% # Class of executed instruction
system.cpu2.op_class::SimdShift                     0      0.00%     60.00% # Class of executed instruction
system.cpu2.op_class::SimdShiftAcc                  0      0.00%     60.00% # Class of executed instruction
system.cpu2.op_class::SimdDiv                       0      0.00%     60.00% # Class of executed instruction
system.cpu2.op_class::SimdSqrt                      0      0.00%     60.00% # Class of executed instruction
system.cpu2.op_class::SimdFloatAdd                  0      0.00%     60.00% # Class of executed instruction
system.cpu2.op_class::SimdFloatAlu                  0      0.00%     60.00% # Class of executed instruction
system.cpu2.op_class::SimdFloatCmp                  0      0.00%     60.00% # Class of executed instruction
system.cpu2.op_class::SimdFloatCvt                  0      0.00%     60.00% # Class of executed instruction
system.cpu2.op_class::SimdFloatDiv                  0      0.00%     60.00% # Class of executed instruction
system.cpu2.op_class::SimdFloatMisc                 0      0.00%     60.00% # Class of executed instruction
system.cpu2.op_class::SimdFloatMult                 0      0.00%     60.00% # Class of executed instruction
system.cpu2.op_class::SimdFloatMultAcc              0      0.00%     60.00% # Class of executed instruction
system.cpu2.op_class::SimdFloatSqrt                 0      0.00%     60.00% # Class of executed instruction
system.cpu2.op_class::SimdReduceAdd                 0      0.00%     60.00% # Class of executed instruction
system.cpu2.op_class::SimdReduceAlu                 0      0.00%     60.00% # Class of executed instruction
system.cpu2.op_class::SimdReduceCmp                 0      0.00%     60.00% # Class of executed instruction
system.cpu2.op_class::SimdFloatReduceAdd            0      0.00%     60.00% # Class of executed instruction
system.cpu2.op_class::SimdFloatReduceCmp            0      0.00%     60.00% # Class of executed instruction
system.cpu2.op_class::SimdAes                       0      0.00%     60.00% # Class of executed instruction
system.cpu2.op_class::SimdAesMix                    0      0.00%     60.00% # Class of executed instruction
system.cpu2.op_class::SimdSha1Hash                  0      0.00%     60.00% # Class of executed instruction
system.cpu2.op_class::SimdSha1Hash2                 0      0.00%     60.00% # Class of executed instruction
system.cpu2.op_class::SimdSha256Hash                0      0.00%     60.00% # Class of executed instruction
system.cpu2.op_class::SimdSha256Hash2               0      0.00%     60.00% # Class of executed instruction
system.cpu2.op_class::SimdShaSigma2                 0      0.00%     60.00% # Class of executed instruction
system.cpu2.op_class::SimdShaSigma3                 0      0.00%     60.00% # Class of executed instruction
system.cpu2.op_class::SimdPredAlu                   0      0.00%     60.00% # Class of executed instruction
system.cpu2.op_class::MemRead                       7     28.00%     88.00% # Class of executed instruction
system.cpu2.op_class::MemWrite                      3     12.00%    100.00% # Class of executed instruction
system.cpu2.op_class::FloatMemRead                  0      0.00%    100.00% # Class of executed instruction
system.cpu2.op_class::FloatMemWrite                 0      0.00%    100.00% # Class of executed instruction
system.cpu2.op_class::IprAccess                     0      0.00%    100.00% # Class of executed instruction
system.cpu2.op_class::InstPrefetch                  0      0.00%    100.00% # Class of executed instruction
system.cpu2.op_class::total                        25                       # Class of executed instruction
system.cpu2.workload.numSyscalls                    0                       # Number of system calls
system.cpu3.Branches                                2                       # Number of branches fetched
system.cpu3.committedInsts                         19                       # Number of instructions committed
system.cpu3.committedOps                           25                       # Number of ops (including micro ops) committed
system.cpu3.idle_fraction                           0                       # Percentage of idle cycles
system.cpu3.l2bus.snoop_filter.hit_multi_requests          473                       # Number of requests hitting in the snoop filter with multiple (>1) holders of the requested data.
system.cpu3.l2bus.snoop_filter.hit_multi_snoops          123                       # Number of snoops hitting in the snoop filter with multiple (>1) holders of the requested data.
system.cpu3.l2bus.snoop_filter.hit_single_requests      8452665                       # Number of requests hitting in the snoop filter with a single holder of the requested data.
system.cpu3.l2bus.snoop_filter.hit_single_snoops         3348                       # Number of snoops hitting in the snoop filter with a single holder of the requested data.
system.cpu3.l2bus.snoop_filter.tot_requests     16843613                       # Total number of requests made to the snoop filter.
system.cpu3.l2bus.snoop_filter.tot_snoops         3471                       # Total number of snoops made to the snoop filter.
system.cpu3.mmucache.mmubus.snoop_filter.hit_multi_requests            0                       # Number of requests hitting in the snoop filter with multiple (>1) holders of the requested data.
system.cpu3.mmucache.mmubus.snoop_filter.hit_multi_snoops            0                       # Number of snoops hitting in the snoop filter with multiple (>1) holders of the requested data.
system.cpu3.mmucache.mmubus.snoop_filter.hit_single_requests            0                       # Number of requests hitting in the snoop filter with a single holder of the requested data.
system.cpu3.mmucache.mmubus.snoop_filter.hit_single_snoops            0                       # Number of snoops hitting in the snoop filter with a single holder of the requested data.
system.cpu3.mmucache.mmubus.snoop_filter.tot_requests            0                       # Total number of requests made to the snoop filter.
system.cpu3.mmucache.mmubus.snoop_filter.tot_snoops            0                       # Total number of snoops made to the snoop filter.
system.cpu3.not_idle_fraction                       1                       # Percentage of non-idle cycles
system.cpu3.numCycles                              30                       # number of cpu cycles simulated
system.cpu3.numWorkItemsCompleted                   0                       # number of work items this cpu completed
system.cpu3.numWorkItemsStarted                     0                       # number of work items this cpu started
system.cpu3.num_busy_cycles                        30                       # Number of busy cycles
system.cpu3.num_cc_register_reads                  13                       # number of times the CC registers were read
system.cpu3.num_cc_register_writes                 12                       # number of times the CC registers were written
system.cpu3.num_conditional_control_insts            2                       # number of instructions that are conditional controls
system.cpu3.num_fp_alu_accesses                     0                       # Number of float alu accesses
system.cpu3.num_fp_insts                            0                       # number of float instructions
system.cpu3.num_fp_register_reads                   0                       # number of times the floating registers were read
system.cpu3.num_fp_register_writes                  0                       # number of times the floating registers were written
system.cpu3.num_func_calls                          0                       # number of times a function call or return occured
system.cpu3.num_idle_cycles                         0                       # Number of idle cycles
system.cpu3.num_int_alu_accesses                   25                       # Number of integer alu accesses
system.cpu3.num_int_insts                          25                       # number of integer instructions
system.cpu3.num_int_register_reads                 59                       # number of times the integer registers were read
system.cpu3.num_int_register_writes                20                       # number of times the integer registers were written
system.cpu3.num_load_insts                          7                       # Number of load instructions
system.cpu3.num_mem_refs                           10                       # number of memory refs
system.cpu3.num_store_insts                         3                       # Number of store instructions
system.cpu3.num_vec_alu_accesses                    0                       # Number of vector alu accesses
system.cpu3.num_vec_insts                           0                       # number of vector instructions
system.cpu3.num_vec_register_reads                  0                       # number of times the vector registers were read
system.cpu3.num_vec_register_writes                 0                       # number of times the vector registers were written
system.cpu3.op_class::No_OpClass                    0      0.00%      0.00% # Class of executed instruction
system.cpu3.op_class::IntAlu                       15     60.00%     60.00% # Class of executed instruction
system.cpu3.op_class::IntMult                       0      0.00%     60.00% # Class of executed instruction
system.cpu3.op_class::IntDiv                        0      0.00%     60.00% # Class of executed instruction
system.cpu3.op_class::FloatAdd                      0      0.00%     60.00% # Class of executed instruction
system.cpu3.op_class::FloatCmp                      0      0.00%     60.00% # Class of executed instruction
system.cpu3.op_class::FloatCvt                      0      0.00%     60.00% # Class of executed instruction
system.cpu3.op_class::FloatMult                     0      0.00%     60.00% # Class of executed instruction
system.cpu3.op_class::FloatMultAcc                  0      0.00%     60.00% # Class of executed instruction
system.cpu3.op_class::FloatDiv                      0      0.00%     60.00% # Class of executed instruction
system.cpu3.op_class::FloatMisc                     0      0.00%     60.00% # Class of executed instruction
system.cpu3.op_class::FloatSqrt                     0      0.00%     60.00% # Class of executed instruction
system.cpu3.op_class::SimdAdd                       0      0.00%     60.00% # Class of executed instruction
system.cpu3.op_class::SimdAddAcc                    0      0.00%     60.00% # Class of executed instruction
system.cpu3.op_class::SimdAlu                       0      0.00%     60.00% # Class of executed instruction
system.cpu3.op_class::SimdCmp                       0      0.00%     60.00% # Class of executed instruction
system.cpu3.op_class::SimdCvt                       0      0.00%     60.00% # Class of executed instruction
system.cpu3.op_class::SimdMisc                      0      0.00%     60.00% # Class of executed instruction
system.cpu3.op_class::SimdMult                      0      0.00%     60.00% # Class of executed instruction
system.cpu3.op_class::SimdMultAcc                   0      0.00%     60.00% # Class of executed instruction
system.cpu3.op_class::SimdShift                     0      0.00%     60.00% # Class of executed instruction
system.cpu3.op_class::SimdShiftAcc                  0      0.00%     60.00% # Class of executed instruction
system.cpu3.op_class::SimdDiv                       0      0.00%     60.00% # Class of executed instruction
system.cpu3.op_class::SimdSqrt                      0      0.00%     60.00% # Class of executed instruction
system.cpu3.op_class::SimdFloatAdd                  0      0.00%     60.00% # Class of executed instruction
system.cpu3.op_class::SimdFloatAlu                  0      0.00%     60.00% # Class of executed instruction
system.cpu3.op_class::SimdFloatCmp                  0      0.00%     60.00% # Class of executed instruction
system.cpu3.op_class::SimdFloatCvt                  0      0.00%     60.00% # Class of executed instruction
system.cpu3.op_class::SimdFloatDiv                  0      0.00%     60.00% # Class of executed instruction
system.cpu3.op_class::SimdFloatMisc                 0      0.00%     60.00% # Class of executed instruction
system.cpu3.op_class::SimdFloatMult                 0      0.00%     60.00% # Class of executed instruction
system.cpu3.op_class::SimdFloatMultAcc              0      0.00%     60.00% # Class of executed instruction
system.cpu3.op_class::SimdFloatSqrt                 0      0.00%     60.00% # Class of executed instruction
system.cpu3.op_class::SimdReduceAdd                 0      0.00%     60.00% # Class of executed instruction
system.cpu3.op_class::SimdReduceAlu                 0      0.00%     60.00% # Class of executed instruction
system.cpu3.op_class::SimdReduceCmp                 0      0.00%     60.00% # Class of executed instruction
system.cpu3.op_class::SimdFloatReduceAdd            0      0.00%     60.00% # Class of executed instruction
system.cpu3.op_class::SimdFloatReduceCmp            0      0.00%     60.00% # Class of executed instruction
system.cpu3.op_class::SimdAes                       0      0.00%     60.00% # Class of executed instruction
system.cpu3.op_class::SimdAesMix                    0      0.00%     60.00% # Class of executed instruction
system.cpu3.op_class::SimdSha1Hash                  0      0.00%     60.00% # Class of executed instruction
system.cpu3.op_class::SimdSha1Hash2                 0      0.00%     60.00% # Class of executed instruction
system.cpu3.op_class::SimdSha256Hash                0      0.00%     60.00% # Class of executed instruction
system.cpu3.op_class::SimdSha256Hash2               0      0.00%     60.00% # Class of executed instruction
system.cpu3.op_class::SimdShaSigma2                 0      0.00%     60.00% # Class of executed instruction
system.cpu3.op_class::SimdShaSigma3                 0      0.00%     60.00% # Class of executed instruction
system.cpu3.op_class::SimdPredAlu                   0      0.00%     60.00% # Class of executed instruction
system.cpu3.op_class::MemRead                       7     28.00%     88.00% # Class of executed instruction
system.cpu3.op_class::MemWrite                      3     12.00%    100.00% # Class of executed instruction
system.cpu3.op_class::FloatMemRead                  0      0.00%    100.00% # Class of executed instruction
system.cpu3.op_class::FloatMemWrite                 0      0.00%    100.00% # Class of executed instruction
system.cpu3.op_class::IprAccess                     0      0.00%    100.00% # Class of executed instruction
system.cpu3.op_class::InstPrefetch                  0      0.00%    100.00% # Class of executed instruction
system.cpu3.op_class::total                        25                       # Class of executed instruction
system.cpu3.workload.numSyscalls                    0                       # Number of system calls
system.l3bus.snoop_filter.hit_multi_requests            0                       # Number of requests hitting in the snoop filter with multiple (>1) holders of the requested data.
system.l3bus.snoop_filter.hit_multi_snoops            0                       # Number of snoops hitting in the snoop filter with multiple (>1) holders of the requested data.
system.l3bus.snoop_filter.hit_single_requests     18120936                       # Number of requests hitting in the snoop filter with a single holder of the requested data.
system.l3bus.snoop_filter.hit_single_snoops            0                       # Number of snoops hitting in the snoop filter with a single holder of the requested data.
system.l3bus.snoop_filter.tot_requests       36257159                       # Total number of requests made to the snoop filter.
system.l3bus.snoop_filter.tot_snoops                0                       # Total number of snoops made to the snoop filter.
system.membus.snoop_filter.hit_multi_requests            0                       # Number of requests hitting in the snoop filter with multiple (>1) holders of the requested data.
system.membus.snoop_filter.hit_multi_snoops            0                       # Number of snoops hitting in the snoop filter with multiple (>1) holders of the requested data.
system.membus.snoop_filter.hit_single_requests      6809802                       # Number of requests hitting in the snoop filter with a single holder of the requested data.
system.membus.snoop_filter.hit_single_snoops            0                       # Number of snoops hitting in the snoop filter with a single holder of the requested data.
system.membus.snoop_filter.tot_requests      13690213                       # Total number of requests made to the snoop filter.
system.membus.snoop_filter.tot_snoops               0                       # Total number of snoops made to the snoop filter.
system.switch_cpus0.cc_regfile_reads        380078792                       # number of cc regfile reads
system.switch_cpus0.cc_regfile_writes       155233283                       # number of cc regfile writes
system.switch_cpus0.committedInsts          249588174                       # Number of Instructions Simulated
system.switch_cpus0.committedOps            429911037                       # Number of Ops (including micro ops) Simulated
system.switch_cpus0.cpi                      1.600566                       # CPI: Cycles Per Instruction
system.switch_cpus0.cpi_total                1.600566                       # CPI: Total CPI of All Threads
system.switch_cpus0.fp_regfile_writes              56                       # number of floating regfile writes
system.switch_cpus0.idleCycles                   8440                       # Total number of cycles that the CPU has spent unscheduled due to idling
system.switch_cpus0.iew.branchMispredicts      5973652                       # Number of branch mispredicts detected at execute
system.switch_cpus0.iew.exec_branches       100569140                       # Number of branches executed
system.switch_cpus0.iew.exec_nop                    0                       # number of nop insts executed
system.switch_cpus0.iew.exec_rate            1.731175                       # Inst execution rate
system.switch_cpus0.iew.exec_refs           171602070                       # number of memory reference insts executed
system.switch_cpus0.iew.exec_stores          35807201                       # Number of stores executed
system.switch_cpus0.iew.exec_swp                    0                       # number of swp insts executed
system.switch_cpus0.iew.iewBlockCycles      163348346                       # Number of cycles IEW is blocking
system.switch_cpus0.iew.iewDispLoadInsts    156329800                       # Number of dispatched load instructions
system.switch_cpus0.iew.iewDispNonSpecInsts            0                       # Number of dispatched non-speculative instructions
system.switch_cpus0.iew.iewDispSquashedInsts       209133                       # Number of squashed instructions skipped by dispatch
system.switch_cpus0.iew.iewDispStoreInsts     40650453                       # Number of dispatched store instructions
system.switch_cpus0.iew.iewDispatchedInsts    789917028                       # Number of instructions dispatched to IQ
system.switch_cpus0.iew.iewExecLoadInsts    135794869                       # Number of load instructions executed
system.switch_cpus0.iew.iewExecSquashedInsts     17710419                       # Number of squashed instructions skipped in execute
system.switch_cpus0.iew.iewExecutedInsts    691573750                       # Number of executed instructions
system.switch_cpus0.iew.iewIQFullEvents        807592                       # Number of times the IQ has become full, causing a stall
system.switch_cpus0.iew.iewIdleCycles               0                       # Number of cycles IEW is idle
system.switch_cpus0.iew.iewLSQFullEvents     16116051                       # Number of times the LSQ has become full, causing a stall
system.switch_cpus0.iew.iewSquashCycles       5780876                       # Number of cycles IEW is squashing
system.switch_cpus0.iew.iewUnblockCycles     17575506                       # Number of cycles IEW is unblocking
system.switch_cpus0.iew.memOrderViolationEvents        22459                       # Number of memory order violations
system.switch_cpus0.iew.predictedNotTakenIncorrect      3268570                       # Number of branches that were predicted not taken incorrectly
system.switch_cpus0.iew.predictedTakenIncorrect      2705082                       # Number of branches that were predicted taken incorrectly
system.switch_cpus0.iew.wb_consumers        721626746                       # num instructions consuming a value
system.switch_cpus0.iew.wb_count            683075628                       # cumulative count of insts written-back
system.switch_cpus0.iew.wb_fanout            0.655447                       # average fanout of values written-back
system.switch_cpus0.iew.wb_producers        472988393                       # num instructions producing a value
system.switch_cpus0.iew.wb_rate              1.709902                       # insts written-back per cycle
system.switch_cpus0.iew.wb_sent             687743408                       # cumulative count of insts sent to commit
system.switch_cpus0.int_regfile_reads       989911484                       # number of integer regfile reads
system.switch_cpus0.int_regfile_writes      555400458                       # number of integer regfile writes
system.switch_cpus0.ipc                      0.624779                       # IPC: Instructions Per Cycle
system.switch_cpus0.ipc_total                0.624779                       # IPC: Total IPC of All Threads
system.switch_cpus0.iq.FU_type_0::No_OpClass       313905      0.04%      0.04% # Type of FU issued
system.switch_cpus0.iq.FU_type_0::IntAlu    527364070     74.35%     74.40% # Type of FU issued
system.switch_cpus0.iq.FU_type_0::IntMult       729094      0.10%     74.50% # Type of FU issued
system.switch_cpus0.iq.FU_type_0::IntDiv      1848177      0.26%     74.76% # Type of FU issued
system.switch_cpus0.iq.FU_type_0::FloatAdd            0      0.00%     74.76% # Type of FU issued
system.switch_cpus0.iq.FU_type_0::FloatCmp            0      0.00%     74.76% # Type of FU issued
system.switch_cpus0.iq.FU_type_0::FloatCvt            0      0.00%     74.76% # Type of FU issued
system.switch_cpus0.iq.FU_type_0::FloatMult            0      0.00%     74.76% # Type of FU issued
system.switch_cpus0.iq.FU_type_0::FloatMultAcc            0      0.00%     74.76% # Type of FU issued
system.switch_cpus0.iq.FU_type_0::FloatDiv            0      0.00%     74.76% # Type of FU issued
system.switch_cpus0.iq.FU_type_0::FloatMisc            0      0.00%     74.76% # Type of FU issued
system.switch_cpus0.iq.FU_type_0::FloatSqrt            0      0.00%     74.76% # Type of FU issued
system.switch_cpus0.iq.FU_type_0::SimdAdd            0      0.00%     74.76% # Type of FU issued
system.switch_cpus0.iq.FU_type_0::SimdAddAcc            0      0.00%     74.76% # Type of FU issued
system.switch_cpus0.iq.FU_type_0::SimdAlu            0      0.00%     74.76% # Type of FU issued
system.switch_cpus0.iq.FU_type_0::SimdCmp            0      0.00%     74.76% # Type of FU issued
system.switch_cpus0.iq.FU_type_0::SimdCvt            0      0.00%     74.76% # Type of FU issued
system.switch_cpus0.iq.FU_type_0::SimdMisc            0      0.00%     74.76% # Type of FU issued
system.switch_cpus0.iq.FU_type_0::SimdMult            0      0.00%     74.76% # Type of FU issued
system.switch_cpus0.iq.FU_type_0::SimdMultAcc            0      0.00%     74.76% # Type of FU issued
system.switch_cpus0.iq.FU_type_0::SimdShift            0      0.00%     74.76% # Type of FU issued
system.switch_cpus0.iq.FU_type_0::SimdShiftAcc            0      0.00%     74.76% # Type of FU issued
system.switch_cpus0.iq.FU_type_0::SimdDiv            0      0.00%     74.76% # Type of FU issued
system.switch_cpus0.iq.FU_type_0::SimdSqrt            0      0.00%     74.76% # Type of FU issued
system.switch_cpus0.iq.FU_type_0::SimdFloatAdd            0      0.00%     74.76% # Type of FU issued
system.switch_cpus0.iq.FU_type_0::SimdFloatAlu            0      0.00%     74.76% # Type of FU issued
system.switch_cpus0.iq.FU_type_0::SimdFloatCmp            0      0.00%     74.76% # Type of FU issued
system.switch_cpus0.iq.FU_type_0::SimdFloatCvt            0      0.00%     74.76% # Type of FU issued
system.switch_cpus0.iq.FU_type_0::SimdFloatDiv            0      0.00%     74.76% # Type of FU issued
system.switch_cpus0.iq.FU_type_0::SimdFloatMisc            0      0.00%     74.76% # Type of FU issued
system.switch_cpus0.iq.FU_type_0::SimdFloatMult            0      0.00%     74.76% # Type of FU issued
system.switch_cpus0.iq.FU_type_0::SimdFloatMultAcc            0      0.00%     74.76% # Type of FU issued
system.switch_cpus0.iq.FU_type_0::SimdFloatSqrt            0      0.00%     74.76% # Type of FU issued
system.switch_cpus0.iq.FU_type_0::SimdReduceAdd            0      0.00%     74.76% # Type of FU issued
system.switch_cpus0.iq.FU_type_0::SimdReduceAlu            0      0.00%     74.76% # Type of FU issued
system.switch_cpus0.iq.FU_type_0::SimdReduceCmp            0      0.00%     74.76% # Type of FU issued
system.switch_cpus0.iq.FU_type_0::SimdFloatReduceAdd            0      0.00%     74.76% # Type of FU issued
system.switch_cpus0.iq.FU_type_0::SimdFloatReduceCmp            0      0.00%     74.76% # Type of FU issued
system.switch_cpus0.iq.FU_type_0::SimdAes            0      0.00%     74.76% # Type of FU issued
system.switch_cpus0.iq.FU_type_0::SimdAesMix            0      0.00%     74.76% # Type of FU issued
system.switch_cpus0.iq.FU_type_0::SimdSha1Hash            0      0.00%     74.76% # Type of FU issued
system.switch_cpus0.iq.FU_type_0::SimdSha1Hash2            0      0.00%     74.76% # Type of FU issued
system.switch_cpus0.iq.FU_type_0::SimdSha256Hash            0      0.00%     74.76% # Type of FU issued
system.switch_cpus0.iq.FU_type_0::SimdSha256Hash2            0      0.00%     74.76% # Type of FU issued
system.switch_cpus0.iq.FU_type_0::SimdShaSigma2            0      0.00%     74.76% # Type of FU issued
system.switch_cpus0.iq.FU_type_0::SimdShaSigma3            0      0.00%     74.76% # Type of FU issued
system.switch_cpus0.iq.FU_type_0::SimdPredAlu            0      0.00%     74.76% # Type of FU issued
system.switch_cpus0.iq.FU_type_0::MemRead    141774678     19.99%     94.75% # Type of FU issued
system.switch_cpus0.iq.FU_type_0::MemWrite     37254249      5.25%    100.00% # Type of FU issued
system.switch_cpus0.iq.FU_type_0::FloatMemRead            0      0.00%    100.00% # Type of FU issued
system.switch_cpus0.iq.FU_type_0::FloatMemWrite            0      0.00%    100.00% # Type of FU issued
system.switch_cpus0.iq.FU_type_0::IprAccess            0      0.00%    100.00% # Type of FU issued
system.switch_cpus0.iq.FU_type_0::InstPrefetch            0      0.00%    100.00% # Type of FU issued
system.switch_cpus0.iq.FU_type_0::total     709284173                       # Type of FU issued
system.switch_cpus0.iq.fp_alu_accesses              0                       # Number of floating point alu accesses
system.switch_cpus0.iq.fp_inst_queue_reads            0                       # Number of floating instruction queue reads
system.switch_cpus0.iq.fp_inst_queue_wakeup_accesses            0                       # Number of floating instruction queue wakeup accesses
system.switch_cpus0.iq.fp_inst_queue_writes            0                       # Number of floating instruction queue writes
system.switch_cpus0.iq.fu_busy_cnt           13678576                       # FU busy when requested
system.switch_cpus0.iq.fu_busy_rate          0.019285                       # FU busy rate (busy events/executed inst)
system.switch_cpus0.iq.fu_full::No_OpClass            0      0.00%      0.00% # attempts to use FU when none available
system.switch_cpus0.iq.fu_full::IntAlu       11946960     87.34%     87.34% # attempts to use FU when none available
system.switch_cpus0.iq.fu_full::IntMult             0      0.00%     87.34% # attempts to use FU when none available
system.switch_cpus0.iq.fu_full::IntDiv              0      0.00%     87.34% # attempts to use FU when none available
system.switch_cpus0.iq.fu_full::FloatAdd            0      0.00%     87.34% # attempts to use FU when none available
system.switch_cpus0.iq.fu_full::FloatCmp            0      0.00%     87.34% # attempts to use FU when none available
system.switch_cpus0.iq.fu_full::FloatCvt            0      0.00%     87.34% # attempts to use FU when none available
system.switch_cpus0.iq.fu_full::FloatMult            0      0.00%     87.34% # attempts to use FU when none available
system.switch_cpus0.iq.fu_full::FloatMultAcc            0      0.00%     87.34% # attempts to use FU when none available
system.switch_cpus0.iq.fu_full::FloatDiv            0      0.00%     87.34% # attempts to use FU when none available
system.switch_cpus0.iq.fu_full::FloatMisc            0      0.00%     87.34% # attempts to use FU when none available
system.switch_cpus0.iq.fu_full::FloatSqrt            0      0.00%     87.34% # attempts to use FU when none available
system.switch_cpus0.iq.fu_full::SimdAdd             0      0.00%     87.34% # attempts to use FU when none available
system.switch_cpus0.iq.fu_full::SimdAddAcc            0      0.00%     87.34% # attempts to use FU when none available
system.switch_cpus0.iq.fu_full::SimdAlu             0      0.00%     87.34% # attempts to use FU when none available
system.switch_cpus0.iq.fu_full::SimdCmp             0      0.00%     87.34% # attempts to use FU when none available
system.switch_cpus0.iq.fu_full::SimdCvt             0      0.00%     87.34% # attempts to use FU when none available
system.switch_cpus0.iq.fu_full::SimdMisc            0      0.00%     87.34% # attempts to use FU when none available
system.switch_cpus0.iq.fu_full::SimdMult            0      0.00%     87.34% # attempts to use FU when none available
system.switch_cpus0.iq.fu_full::SimdMultAcc            0      0.00%     87.34% # attempts to use FU when none available
system.switch_cpus0.iq.fu_full::SimdShift            0      0.00%     87.34% # attempts to use FU when none available
system.switch_cpus0.iq.fu_full::SimdShiftAcc            0      0.00%     87.34% # attempts to use FU when none available
system.switch_cpus0.iq.fu_full::SimdDiv             0      0.00%     87.34% # attempts to use FU when none available
system.switch_cpus0.iq.fu_full::SimdSqrt            0      0.00%     87.34% # attempts to use FU when none available
system.switch_cpus0.iq.fu_full::SimdFloatAdd            0      0.00%     87.34% # attempts to use FU when none available
system.switch_cpus0.iq.fu_full::SimdFloatAlu            0      0.00%     87.34% # attempts to use FU when none available
system.switch_cpus0.iq.fu_full::SimdFloatCmp            0      0.00%     87.34% # attempts to use FU when none available
system.switch_cpus0.iq.fu_full::SimdFloatCvt            0      0.00%     87.34% # attempts to use FU when none available
system.switch_cpus0.iq.fu_full::SimdFloatDiv            0      0.00%     87.34% # attempts to use FU when none available
system.switch_cpus0.iq.fu_full::SimdFloatMisc            0      0.00%     87.34% # attempts to use FU when none available
system.switch_cpus0.iq.fu_full::SimdFloatMult            0      0.00%     87.34% # attempts to use FU when none available
system.switch_cpus0.iq.fu_full::SimdFloatMultAcc            0      0.00%     87.34% # attempts to use FU when none available
system.switch_cpus0.iq.fu_full::SimdFloatSqrt            0      0.00%     87.34% # attempts to use FU when none available
system.switch_cpus0.iq.fu_full::SimdReduceAdd            0      0.00%     87.34% # attempts to use FU when none available
system.switch_cpus0.iq.fu_full::SimdReduceAlu            0      0.00%     87.34% # attempts to use FU when none available
system.switch_cpus0.iq.fu_full::SimdReduceCmp            0      0.00%     87.34% # attempts to use FU when none available
system.switch_cpus0.iq.fu_full::SimdFloatReduceAdd            0      0.00%     87.34% # attempts to use FU when none available
system.switch_cpus0.iq.fu_full::SimdFloatReduceCmp            0      0.00%     87.34% # attempts to use FU when none available
system.switch_cpus0.iq.fu_full::SimdAes             0      0.00%     87.34% # attempts to use FU when none available
system.switch_cpus0.iq.fu_full::SimdAesMix            0      0.00%     87.34% # attempts to use FU when none available
system.switch_cpus0.iq.fu_full::SimdSha1Hash            0      0.00%     87.34% # attempts to use FU when none available
system.switch_cpus0.iq.fu_full::SimdSha1Hash2            0      0.00%     87.34% # attempts to use FU when none available
system.switch_cpus0.iq.fu_full::SimdSha256Hash            0      0.00%     87.34% # attempts to use FU when none available
system.switch_cpus0.iq.fu_full::SimdSha256Hash2            0      0.00%     87.34% # attempts to use FU when none available
system.switch_cpus0.iq.fu_full::SimdShaSigma2            0      0.00%     87.34% # attempts to use FU when none available
system.switch_cpus0.iq.fu_full::SimdShaSigma3            0      0.00%     87.34% # attempts to use FU when none available
system.switch_cpus0.iq.fu_full::SimdPredAlu            0      0.00%     87.34% # attempts to use FU when none available
system.switch_cpus0.iq.fu_full::MemRead       1604267     11.73%     99.07% # attempts to use FU when none available
system.switch_cpus0.iq.fu_full::MemWrite       127349      0.93%    100.00% # attempts to use FU when none available
system.switch_cpus0.iq.fu_full::FloatMemRead            0      0.00%    100.00% # attempts to use FU when none available
system.switch_cpus0.iq.fu_full::FloatMemWrite            0      0.00%    100.00% # attempts to use FU when none available
system.switch_cpus0.iq.fu_full::IprAccess            0      0.00%    100.00% # attempts to use FU when none available
system.switch_cpus0.iq.fu_full::InstPrefetch            0      0.00%    100.00% # attempts to use FU when none available
system.switch_cpus0.iq.int_alu_accesses     722648844                       # Number of integer alu accesses
system.switch_cpus0.iq.int_inst_queue_reads   1834342609                       # Number of integer instruction queue reads
system.switch_cpus0.iq.int_inst_queue_wakeup_accesses    683075628                       # Number of integer instruction queue wakeup accesses
system.switch_cpus0.iq.int_inst_queue_writes   1149944233                       # Number of integer instruction queue writes
system.switch_cpus0.iq.iqInstsAdded         789917028                       # Number of instructions added to the IQ (excludes non-spec)
system.switch_cpus0.iq.iqInstsIssued        709284173                       # Number of instructions issued
system.switch_cpus0.iq.iqSquashedInstsExamined    360005836                       # Number of squashed instructions iterated over during squash; mainly for profiling
system.switch_cpus0.iq.iqSquashedInstsIssued      2621739                       # Number of squashed instructions issued
system.switch_cpus0.iq.iqSquashedOperandsExamined    383036590                       # Number of squashed operands that are examined and possibly removed from graph
system.switch_cpus0.iq.issued_per_cycle::samples    399473952                       # Number of insts issued each cycle
system.switch_cpus0.iq.issued_per_cycle::mean     1.775545                       # Number of insts issued each cycle
system.switch_cpus0.iq.issued_per_cycle::stdev     2.689383                       # Number of insts issued each cycle
system.switch_cpus0.iq.issued_per_cycle::underflows            0      0.00%      0.00% # Number of insts issued each cycle
system.switch_cpus0.iq.issued_per_cycle::0    247156314     61.87%     61.87% # Number of insts issued each cycle
system.switch_cpus0.iq.issued_per_cycle::1     23539035      5.89%     67.76% # Number of insts issued each cycle
system.switch_cpus0.iq.issued_per_cycle::2     15833600      3.96%     71.73% # Number of insts issued each cycle
system.switch_cpus0.iq.issued_per_cycle::3     10708759      2.68%     74.41% # Number of insts issued each cycle
system.switch_cpus0.iq.issued_per_cycle::4     15786780      3.95%     78.36% # Number of insts issued each cycle
system.switch_cpus0.iq.issued_per_cycle::5     20460444      5.12%     83.48% # Number of insts issued each cycle
system.switch_cpus0.iq.issued_per_cycle::6     24586443      6.15%     89.64% # Number of insts issued each cycle
system.switch_cpus0.iq.issued_per_cycle::7     22236953      5.57%     95.20% # Number of insts issued each cycle
system.switch_cpus0.iq.issued_per_cycle::8     19165624      4.80%    100.00% # Number of insts issued each cycle
system.switch_cpus0.iq.issued_per_cycle::overflows            0      0.00%    100.00% # Number of insts issued each cycle
system.switch_cpus0.iq.issued_per_cycle::min_value            0                       # Number of insts issued each cycle
system.switch_cpus0.iq.issued_per_cycle::max_value            8                       # Number of insts issued each cycle
system.switch_cpus0.iq.issued_per_cycle::total    399473952                       # Number of insts issued each cycle
system.switch_cpus0.iq.rate                  1.775508                       # Inst issue rate
system.switch_cpus0.iq.vec_alu_accesses             0                       # Number of vector alu accesses
system.switch_cpus0.iq.vec_inst_queue_reads            0                       # Number of vector instruction queue reads
system.switch_cpus0.iq.vec_inst_queue_wakeup_accesses            0                       # Number of vector instruction queue wakeup accesses
system.switch_cpus0.iq.vec_inst_queue_writes            0                       # Number of vector instruction queue writes
system.switch_cpus0.memDep0.conflictingLoads     15008240                       # Number of conflicting loads.
system.switch_cpus0.memDep0.conflictingStores      4920212                       # Number of conflicting stores.
system.switch_cpus0.memDep0.insertedLoads    156329800                       # Number of loads inserted to the mem dependence unit.
system.switch_cpus0.memDep0.insertedStores     40650453                       # Number of stores inserted to the mem dependence unit.
system.switch_cpus0.misc_regfile_reads      372393995                       # number of misc regfile reads
system.switch_cpus0.misc_regfile_writes             1                       # number of misc regfile writes
system.switch_cpus0.numCycles               399482392                       # number of cpu cycles simulated
system.switch_cpus0.numWorkItemsCompleted            0                       # number of work items this cpu completed
system.switch_cpus0.numWorkItemsStarted             0                       # number of work items this cpu started
system.switch_cpus0.timesIdled                     57                       # Number of times that the entire CPU went into an idle state and unscheduled itself
system.switch_cpus1.cc_regfile_reads        379046875                       # number of cc regfile reads
system.switch_cpus1.cc_regfile_writes       154833064                       # number of cc regfile writes
system.switch_cpus1.committedInsts          248895419                       # Number of Instructions Simulated
system.switch_cpus1.committedOps            428701858                       # Number of Ops (including micro ops) Simulated
system.switch_cpus1.cpi                      1.605021                       # CPI: Cycles Per Instruction
system.switch_cpus1.cpi_total                1.605021                       # CPI: Total CPI of All Threads
system.switch_cpus1.fp_regfile_writes              56                       # number of floating regfile writes
system.switch_cpus1.idleCycles                   8898                       # Total number of cycles that the CPU has spent unscheduled due to idling
system.switch_cpus1.iew.branchMispredicts      5954786                       # Number of branch mispredicts detected at execute
system.switch_cpus1.iew.exec_branches       100298929                       # Number of branches executed
system.switch_cpus1.iew.exec_nop                    0                       # number of nop insts executed
system.switch_cpus1.iew.exec_rate            1.726422                       # Inst execution rate
system.switch_cpus1.iew.exec_refs           171117014                       # number of memory reference insts executed
system.switch_cpus1.iew.exec_stores          35706318                       # Number of stores executed
system.switch_cpus1.iew.exec_swp                    0                       # number of swp insts executed
system.switch_cpus1.iew.iewBlockCycles      163910013                       # Number of cycles IEW is blocking
system.switch_cpus1.iew.iewDispLoadInsts    155900905                       # Number of dispatched load instructions
system.switch_cpus1.iew.iewDispNonSpecInsts            0                       # Number of dispatched non-speculative instructions
system.switch_cpus1.iew.iewDispSquashedInsts       208769                       # Number of squashed instructions skipped by dispatch
system.switch_cpus1.iew.iewDispStoreInsts     40543727                       # Number of dispatched store instructions
system.switch_cpus1.iew.iewDispatchedInsts    787742470                       # Number of instructions dispatched to IQ
system.switch_cpus1.iew.iewExecLoadInsts    135410696                       # Number of load instructions executed
system.switch_cpus1.iew.iewExecSquashedInsts     17651964                       # Number of squashed instructions skipped in execute
system.switch_cpus1.iew.iewExecutedInsts    689675387                       # Number of executed instructions
system.switch_cpus1.iew.iewIQFullEvents        810874                       # Number of times the IQ has become full, causing a stall
system.switch_cpus1.iew.iewIdleCycles               0                       # Number of cycles IEW is idle
system.switch_cpus1.iew.iewLSQFullEvents     15839721                       # Number of times the LSQ has become full, causing a stall
system.switch_cpus1.iew.iewSquashCycles       5761949                       # Number of cycles IEW is squashing
system.switch_cpus1.iew.iewUnblockCycles     17308851                       # Number of cycles IEW is unblocking
system.switch_cpus1.iew.memOrderViolationEvents        22884                       # Number of memory order violations
system.switch_cpus1.iew.predictedNotTakenIncorrect      3258163                       # Number of branches that were predicted not taken incorrectly
system.switch_cpus1.iew.predictedTakenIncorrect      2696623                       # Number of branches that were predicted taken incorrectly
system.switch_cpus1.iew.wb_consumers        719616195                       # num instructions consuming a value
system.switch_cpus1.iew.wb_count            681202604                       # cumulative count of insts written-back
system.switch_cpus1.iew.wb_fanout            0.655437                       # average fanout of values written-back
system.switch_cpus1.iew.wb_producers        471663159                       # num instructions producing a value
system.switch_cpus1.iew.wb_rate              1.705213                       # insts written-back per cycle
system.switch_cpus1.iew.wb_sent             685855831                       # cumulative count of insts sent to commit
system.switch_cpus1.int_regfile_reads       987167860                       # number of integer regfile reads
system.switch_cpus1.int_regfile_writes      553869720                       # number of integer regfile writes
system.switch_cpus1.ipc                      0.623045                       # IPC: Instructions Per Cycle
system.switch_cpus1.ipc_total                0.623045                       # IPC: Total IPC of All Threads
system.switch_cpus1.iq.FU_type_0::No_OpClass       312957      0.04%      0.04% # Type of FU issued
system.switch_cpus1.iq.FU_type_0::IntAlu    525929353     74.35%     74.40% # Type of FU issued
system.switch_cpus1.iq.FU_type_0::IntMult       726601      0.10%     74.50% # Type of FU issued
system.switch_cpus1.iq.FU_type_0::IntDiv      1841684      0.26%     74.76% # Type of FU issued
system.switch_cpus1.iq.FU_type_0::FloatAdd            0      0.00%     74.76% # Type of FU issued
system.switch_cpus1.iq.FU_type_0::FloatCmp            0      0.00%     74.76% # Type of FU issued
system.switch_cpus1.iq.FU_type_0::FloatCvt            0      0.00%     74.76% # Type of FU issued
system.switch_cpus1.iq.FU_type_0::FloatMult            0      0.00%     74.76% # Type of FU issued
system.switch_cpus1.iq.FU_type_0::FloatMultAcc            0      0.00%     74.76% # Type of FU issued
system.switch_cpus1.iq.FU_type_0::FloatDiv            0      0.00%     74.76% # Type of FU issued
system.switch_cpus1.iq.FU_type_0::FloatMisc            0      0.00%     74.76% # Type of FU issued
system.switch_cpus1.iq.FU_type_0::FloatSqrt            0      0.00%     74.76% # Type of FU issued
system.switch_cpus1.iq.FU_type_0::SimdAdd            0      0.00%     74.76% # Type of FU issued
system.switch_cpus1.iq.FU_type_0::SimdAddAcc            0      0.00%     74.76% # Type of FU issued
system.switch_cpus1.iq.FU_type_0::SimdAlu            0      0.00%     74.76% # Type of FU issued
system.switch_cpus1.iq.FU_type_0::SimdCmp            0      0.00%     74.76% # Type of FU issued
system.switch_cpus1.iq.FU_type_0::SimdCvt            0      0.00%     74.76% # Type of FU issued
system.switch_cpus1.iq.FU_type_0::SimdMisc            0      0.00%     74.76% # Type of FU issued
system.switch_cpus1.iq.FU_type_0::SimdMult            0      0.00%     74.76% # Type of FU issued
system.switch_cpus1.iq.FU_type_0::SimdMultAcc            0      0.00%     74.76% # Type of FU issued
system.switch_cpus1.iq.FU_type_0::SimdShift            0      0.00%     74.76% # Type of FU issued
system.switch_cpus1.iq.FU_type_0::SimdShiftAcc            0      0.00%     74.76% # Type of FU issued
system.switch_cpus1.iq.FU_type_0::SimdDiv            0      0.00%     74.76% # Type of FU issued
system.switch_cpus1.iq.FU_type_0::SimdSqrt            0      0.00%     74.76% # Type of FU issued
system.switch_cpus1.iq.FU_type_0::SimdFloatAdd            0      0.00%     74.76% # Type of FU issued
system.switch_cpus1.iq.FU_type_0::SimdFloatAlu            0      0.00%     74.76% # Type of FU issued
system.switch_cpus1.iq.FU_type_0::SimdFloatCmp            0      0.00%     74.76% # Type of FU issued
system.switch_cpus1.iq.FU_type_0::SimdFloatCvt            0      0.00%     74.76% # Type of FU issued
system.switch_cpus1.iq.FU_type_0::SimdFloatDiv            0      0.00%     74.76% # Type of FU issued
system.switch_cpus1.iq.FU_type_0::SimdFloatMisc            0      0.00%     74.76% # Type of FU issued
system.switch_cpus1.iq.FU_type_0::SimdFloatMult            0      0.00%     74.76% # Type of FU issued
system.switch_cpus1.iq.FU_type_0::SimdFloatMultAcc            0      0.00%     74.76% # Type of FU issued
system.switch_cpus1.iq.FU_type_0::SimdFloatSqrt            0      0.00%     74.76% # Type of FU issued
system.switch_cpus1.iq.FU_type_0::SimdReduceAdd            0      0.00%     74.76% # Type of FU issued
system.switch_cpus1.iq.FU_type_0::SimdReduceAlu            0      0.00%     74.76% # Type of FU issued
system.switch_cpus1.iq.FU_type_0::SimdReduceCmp            0      0.00%     74.76% # Type of FU issued
system.switch_cpus1.iq.FU_type_0::SimdFloatReduceAdd            0      0.00%     74.76% # Type of FU issued
system.switch_cpus1.iq.FU_type_0::SimdFloatReduceCmp            0      0.00%     74.76% # Type of FU issued
system.switch_cpus1.iq.FU_type_0::SimdAes            0      0.00%     74.76% # Type of FU issued
system.switch_cpus1.iq.FU_type_0::SimdAesMix            0      0.00%     74.76% # Type of FU issued
system.switch_cpus1.iq.FU_type_0::SimdSha1Hash            0      0.00%     74.76% # Type of FU issued
system.switch_cpus1.iq.FU_type_0::SimdSha1Hash2            0      0.00%     74.76% # Type of FU issued
system.switch_cpus1.iq.FU_type_0::SimdSha256Hash            0      0.00%     74.76% # Type of FU issued
[...]
system.switch_cpus3.commit.numCommittedDist::mean     1.234528                       # Number of insts commited each cycle
system.switch_cpus3.commit.numCommittedDist::stdev     2.458726                       # Number of insts commited each cycle
system.switch_cpus3.commit.numCommittedDist::underflows            0      0.00%      0.00% # Number of insts commited each cycle
system.switch_cpus3.commit.numCommittedDist::0    244585730     70.20%     70.20% # Number of insts commited each cycle
system.switch_cpus3.commit.numCommittedDist::1     29068642      8.34%     78.55% # Number of insts commited each cycle
system.switch_cpus3.commit.numCommittedDist::2     12661185      3.63%     82.18% # Number of insts commited each cycle
system.switch_cpus3.commit.numCommittedDist::3     13417542      3.85%     86.03% # Number of insts commited each cycle
system.switch_cpus3.commit.numCommittedDist::4      8578633      2.46%     88.49% # Number of insts commited each cycle
system.switch_cpus3.commit.numCommittedDist::5      3789282      1.09%     89.58% # Number of insts commited each cycle
system.switch_cpus3.commit.numCommittedDist::6      2131638      0.61%     90.19% # Number of insts commited each cycle
system.switch_cpus3.commit.numCommittedDist::7      3905624      1.12%     91.31% # Number of insts commited each cycle
system.switch_cpus3.commit.numCommittedDist::8     30259052      8.69%    100.00% # Number of insts commited each cycle
system.switch_cpus3.commit.numCommittedDist::overflows            0      0.00%    100.00% # Number of insts commited each cycle
system.switch_cpus3.commit.numCommittedDist::min_value            0                       # Number of insts commited each cycle
system.switch_cpus3.commit.numCommittedDist::max_value            8                       # Number of insts commited each cycle
system.switch_cpus3.commit.numCommittedDist::total    348397328                       # Number of insts commited each cycle
system.switch_cpus3.commit.instsCommitted    249704924                       # Number of instructions committed
system.switch_cpus3.commit.opsCommitted     430106192                       # Number of ops (including micro ops) committed
system.switch_cpus3.commit.memRefs          109303522                       # Number of memory references committed
system.switch_cpus3.commit.loads             85351095                       # Number of loads committed
system.switch_cpus3.commit.amos                     0                       # Number of atomic instructions committed
system.switch_cpus3.commit.membars                  0                       # Number of memory barriers committed
system.switch_cpus3.commit.branches          64237035                       # Number of branches committed
system.switch_cpus3.commit.vector                   0                       # Number of committed Vector instructions.
system.switch_cpus3.commit.floating                 0                       # Number of committed floating point instructions.
system.switch_cpus3.commit.integer          429570680                       # Number of committed integer instructions.
system.switch_cpus3.commit.functionCalls      8259681                       # Number of function calls committed.
system.switch_cpus3.commit.committedInstType_0::No_OpClass       281333      0.07%      0.07% # Class of committed instruction
system.switch_cpus3.commit.committedInstType_0::IntAlu    318178903     73.98%     74.04% # Class of committed instruction
system.switch_cpus3.commit.committedInstType_0::IntMult       562941      0.13%     74.17% # Class of committed instruction
system.switch_cpus3.commit.committedInstType_0::IntDiv      1779493      0.41%     74.59% # Class of committed instruction
system.switch_cpus3.commit.committedInstType_0::FloatAdd            0      0.00%     74.59% # Class of committed instruction
system.switch_cpus3.commit.committedInstType_0::FloatCmp            0      0.00%     74.59% # Class of committed instruction
system.switch_cpus3.commit.committedInstType_0::FloatCvt            0      0.00%     74.59% # Class of committed instruction
system.switch_cpus3.commit.committedInstType_0::FloatMult            0      0.00%     74.59% # Class of committed instruction
system.switch_cpus3.commit.committedInstType_0::FloatMultAcc            0      0.00%     74.59% # Class of committed instruction
system.switch_cpus3.commit.committedInstType_0::FloatDiv            0      0.00%     74.59% # Class of committed instruction
system.switch_cpus3.commit.committedInstType_0::FloatMisc            0      0.00%     74.59% # Class of committed instruction
system.switch_cpus3.commit.committedInstType_0::FloatSqrt            0      0.00%     74.59% # Class of committed instruction
system.switch_cpus3.commit.committedInstType_0::SimdAdd            0      0.00%     74.59% # Class of committed instruction
system.switch_cpus3.commit.committedInstType_0::SimdAddAcc            0      0.00%     74.59% # Class of committed instruction
system.switch_cpus3.commit.committedInstType_0::SimdAlu            0      0.00%     74.59% # Class of committed instruction
system.switch_cpus3.commit.committedInstType_0::SimdCmp            0      0.00%     74.59% # Class of committed instruction
system.switch_cpus3.commit.committedInstType_0::SimdCvt            0      0.00%     74.59% # Class of committed instruction
system.switch_cpus3.commit.committedInstType_0::SimdMisc            0      0.00%     74.59% # Class of committed instruction
system.switch_cpus3.commit.committedInstType_0::SimdMult            0      0.00%     74.59% # Class of committed instruction
system.switch_cpus3.commit.committedInstType_0::SimdMultAcc            0      0.00%     74.59% # Class of committed instruction
system.switch_cpus3.commit.committedInstType_0::SimdShift            0      0.00%     74.59% # Class of committed instruction
system.switch_cpus3.commit.committedInstType_0::SimdShiftAcc            0      0.00%     74.59% # Class of committed instruction
system.switch_cpus3.commit.committedInstType_0::SimdDiv            0      0.00%     74.59% # Class of committed instruction
system.switch_cpus3.commit.committedInstType_0::SimdSqrt            0      0.00%     74.59% # Class of committed instruction
system.switch_cpus3.commit.committedInstType_0::SimdFloatAdd            0      0.00%     74.59% # Class of committed instruction
system.switch_cpus3.commit.committedInstType_0::SimdFloatAlu            0      0.00%     74.59% # Class of committed instruction
system.switch_cpus3.commit.committedInstType_0::SimdFloatCmp            0      0.00%     74.59% # Class of committed instruction
system.switch_cpus3.commit.committedInstType_0::SimdFloatCvt            0      0.00%     74.59% # Class of committed instruction
system.switch_cpus3.commit.committedInstType_0::SimdFloatDiv            0      0.00%     74.59% # Class of committed instruction
system.switch_cpus3.commit.committedInstType_0::SimdFloatMisc            0      0.00%     74.59% # Class of committed instruction
system.switch_cpus3.commit.committedInstType_0::SimdFloatMult            0      0.00%     74.59% # Class of committed instruction
system.switch_cpus3.commit.committedInstType_0::SimdFloatMultAcc            0      0.00%     74.59% # Class of committed instruction
system.switch_cpus3.commit.committedInstType_0::SimdFloatSqrt            0      0.00%     74.59% # Class of committed instruction
system.switch_cpus3.commit.committedInstType_0::SimdReduceAdd            0      0.00%     74.59% # Class of committed instruction
system.switch_cpus3.commit.committedInstType_0::SimdReduceAlu            0      0.00%     74.59% # Class of committed instruction
system.switch_cpus3.commit.committedInstType_0::SimdReduceCmp            0      0.00%     74.59% # Class of committed instruction
system.switch_cpus3.commit.committedInstType_0::SimdFloatReduceAdd            0      0.00%     74.59% # Class of committed instruction
system.switch_cpus3.commit.committedInstType_0::SimdFloatReduceCmp            0      0.00%     74.59% # Class of committed instruction
system.switch_cpus3.commit.committedInstType_0::SimdAes            0      0.00%     74.59% # Class of committed instruction
system.switch_cpus3.commit.committedInstType_0::SimdAesMix            0      0.00%     74.59% # Class of committed instruction
system.switch_cpus3.commit.committedInstType_0::SimdSha1Hash            0      0.00%     74.59% # Class of committed instruction
system.switch_cpus3.commit.committedInstType_0::SimdSha1Hash2            0      0.00%     74.59% # Class of committed instruction
system.switch_cpus3.commit.committedInstType_0::SimdSha256Hash            0      0.00%     74.59% # Class of committed instruction
system.switch_cpus3.commit.committedInstType_0::SimdSha256Hash2            0      0.00%     74.59% # Class of committed instruction
system.switch_cpus3.commit.committedInstType_0::SimdShaSigma2            0      0.00%     74.59% # Class of committed instruction
system.switch_cpus3.commit.committedInstType_0::SimdShaSigma3            0      0.00%     74.59% # Class of committed instruction
system.switch_cpus3.commit.committedInstType_0::SimdPredAlu            0      0.00%     74.59% # Class of committed instruction
system.switch_cpus3.commit.committedInstType_0::MemRead     85351095     19.84%     94.43% # Class of committed instruction
system.switch_cpus3.commit.committedInstType_0::MemWrite     23952427      5.57%    100.00% # Class of committed instruction
system.switch_cpus3.commit.committedInstType_0::FloatMemRead            0      0.00%    100.00% # Class of committed instruction
system.switch_cpus3.commit.committedInstType_0::FloatMemWrite            0      0.00%    100.00% # Class of committed instruction
system.switch_cpus3.commit.committedInstType_0::IprAccess            0      0.00%    100.00% # Class of committed instruction
system.switch_cpus3.commit.committedInstType_0::InstPrefetch            0      0.00%    100.00% # Class of committed instruction
system.switch_cpus3.commit.committedInstType_0::total    430106192                       # Class of committed instruction
system.switch_cpus3.commit.commitEligibleSamples     30259052                       # number cycles where commit BW limit reached
system.switch_cpus3.decode.idleCycles        18163635                       # Number of cycles decode is idle
system.switch_cpus3.decode.blockedCycles    242795930                       # Number of cycles decode is blocked
system.switch_cpus3.decode.runCycles        116414666                       # Number of cycles decode is running
system.switch_cpus3.decode.unblockCycles     16314714                       # Number of cycles decode is unblocking
system.switch_cpus3.decode.squashCycles       5782631                       # Number of cycles decode is squashing
system.switch_cpus3.decode.branchResolved     46873426                       # Number of times decode resolved a  branch
system.switch_cpus3.decode.branchMispred           92                       # Number of times decode detected a branch misprediction
system.switch_cpus3.decode.decodedInsts     876140647                       # Number of instructions handled by decode
system.switch_cpus3.decode.squashedInsts          604                       # Number of squashed instructions handled by decode
system.switch_cpus3.dtb.rdAccesses          135856221                       # TLB accesses on read requests
system.switch_cpus3.dtb.wrAccesses           35819019                       # TLB accesses on write requests
system.switch_cpus3.dtb.rdMisses              1557667                       # TLB misses on read requests
system.switch_cpus3.dtb.wrMisses               282954                       # TLB misses on write requests
system.switch_cpus3.dtb.walker.power_state.pwrStateResidencyTicks::UNDEFINED 16948178515008                       # Cumulative time (in ticks) in various power states
system.switch_cpus3.fetch.icacheStallCycles      4772830                       # Number of cycles fetch is stalled on an Icache miss
system.switch_cpus3.fetch.insts             546754188                       # Number of instructions fetch has processed
system.switch_cpus3.fetch.branches          144676103                       # Number of branches that fetch encountered
system.switch_cpus3.fetch.predictedBranches     89132480                       # Number of branches that fetch has predicted taken
system.switch_cpus3.fetch.cycles            388916032                       # Number of cycles fetch has run and was not squashing or blocked
system.switch_cpus3.fetch.squashCycles       11565442                       # Number of cycles fetch has spent squashing
system.switch_cpus3.fetch.cacheLines        108141281                       # Number of cache lines fetched
system.switch_cpus3.fetch.icacheSquashes          120                       # Number of outstanding Icache misses that were squashed
system.switch_cpus3.fetch.nisnDist::samples    399471583                       # Number of instructions fetched each cycle (Total)
system.switch_cpus3.fetch.nisnDist::mean     2.369332                       # Number of instructions fetched each cycle (Total)
system.switch_cpus3.fetch.nisnDist::stdev     3.135288                       # Number of instructions fetched each cycle (Total)
system.switch_cpus3.fetch.nisnDist::underflows            0      0.00%      0.00% # Number of instructions fetched each cycle (Total)
system.switch_cpus3.fetch.nisnDist::0       224730453     56.26%     56.26% # Number of instructions fetched each cycle (Total)
system.switch_cpus3.fetch.nisnDist::1        14040305      3.51%     59.77% # Number of instructions fetched each cycle (Total)
system.switch_cpus3.fetch.nisnDist::2        12279184      3.07%     62.85% # Number of instructions fetched each cycle (Total)
system.switch_cpus3.fetch.nisnDist::3        22072619      5.53%     68.37% # Number of instructions fetched each cycle (Total)
system.switch_cpus3.fetch.nisnDist::4        21721636      5.44%     73.81% # Number of instructions fetched each cycle (Total)
system.switch_cpus3.fetch.nisnDist::5        12317372      3.08%     76.89% # Number of instructions fetched each cycle (Total)
system.switch_cpus3.fetch.nisnDist::6        11775955      2.95%     79.84% # Number of instructions fetched each cycle (Total)
system.switch_cpus3.fetch.nisnDist::7        21737389      5.44%     85.28% # Number of instructions fetched each cycle (Total)
system.switch_cpus3.fetch.nisnDist::8        58796670     14.72%    100.00% # Number of instructions fetched each cycle (Total)
system.switch_cpus3.fetch.nisnDist::overflows            0      0.00%    100.00% # Number of instructions fetched each cycle (Total)
system.switch_cpus3.fetch.nisnDist::min_value            0                       # Number of instructions fetched each cycle (Total)
system.switch_cpus3.fetch.nisnDist::max_value            8                       # Number of instructions fetched each cycle (Total)
system.switch_cpus3.fetch.nisnDist::total    399471583                       # Number of instructions fetched each cycle (Total)
system.switch_cpus3.fetch.branchRate         0.362159                       # Number of branch fetches per cycle
system.switch_cpus3.fetch.rate               1.368657                       # Number of inst fetches per cycle
system.switch_cpus3.itb.rdAccesses                  0                       # TLB accesses on read requests
system.switch_cpus3.itb.wrAccesses          108141281                       # TLB accesses on write requests
system.switch_cpus3.itb.rdMisses                    0                       # TLB misses on read requests
system.switch_cpus3.itb.wrMisses                    5                       # TLB misses on write requests
system.switch_cpus3.itb.walker.power_state.pwrStateResidencyTicks::UNDEFINED 16948178515008                       # Cumulative time (in ticks) in various power states
system.switch_cpus3.lsq0.forwLoads           22689081                       # Number of loads that had data forwarded from stores
system.switch_cpus3.lsq0.squashedLoads       71073601                       # Number of loads squashed
system.switch_cpus3.lsq0.ignoredResponses       402356                       # Number of memory responses ignored because the instruction is squashed
system.switch_cpus3.lsq0.memOrderViolation        23008                       # Number of memory ordering violations
system.switch_cpus3.lsq0.squashedStores      16722707                       # Number of stores squashed
system.switch_cpus3.lsq0.rescheduledLoads         2355                       # Number of loads that were rescheduled
system.switch_cpus3.lsq0.blockedByCache           109                       # Number of times an access to memory failed due to the cache being blocked
system.switch_cpus3.power_state.pwrStateResidencyTicks::OFF 133027646859                       # Cumulative time (in ticks) in various power states
system.switch_cpus3.rename.squashCycles       5782631                       # Number of cycles rename is squashing
system.switch_cpus3.rename.idleCycles        25491605                       # Number of cycles rename is idle
system.switch_cpus3.rename.blockCycles      201056712                       # Number of cycles rename is blocking
system.switch_cpus3.rename.serializeStallCycles            0                       # count of cycles rename stalledfor serializing inst
system.switch_cpus3.rename.runCycles        123470594                       # Number of cycles rename is running
system.switch_cpus3.rename.unblockCycles     43670034                       # Number of cycles rename is unblocking
system.switch_cpus3.rename.renamedInsts     845420679                       # Number of instructions processed by rename
system.switch_cpus3.rename.ROBFullEvents      3988531                       # Number of times rename has blocked due to ROB full
system.switch_cpus3.rename.IQFullEvents      18834305                       # Number of times rename has blocked due to IQ full
system.switch_cpus3.rename.LQFullEvents      29215640                       # Number of times rename has blocked due to LQ full
system.switch_cpus3.rename.SQFullEvents        522756                       # Number of times rename has blocked due to SQ full
system.switch_cpus3.rename.renamedOperands    883306306                       # Number of destination operands rename has renamed
system.switch_cpus3.rename.lookups         2259460959                       # Number of register rename lookups that rename has made
system.switch_cpus3.rename.intLookups      1262778524                       # Number of integer rename lookups
system.switch_cpus3.rename.committedMaps    453720296                       # Number of HB maps that are committed
system.switch_cpus3.rename.undoneMaps       429585896                       # Number of HB maps that are undone due to squashing
system.switch_cpus3.rename.serializing              0                       # count of serializing insts renamed
system.switch_cpus3.rename.tempSerializing            0                       # count of temporary serializing insts renamed
system.switch_cpus3.rename.skidInsts         47545488                       # count of insts added to the skid buffer
system.switch_cpus3.rob.reads              1108561092                       # The number of ROB reads
system.switch_cpus3.rob.writes             1632207637                       # The number of ROB writes
system.switch_cpus3.thread0.numInsts        249704924                       # Number of Instructions committed
system.switch_cpus3.thread0.numOps          430106192                       # Number of Ops committed
system.switch_cpus3.thread0.numMemRefs              0                       # Number of Memory References
system.voltage_domain.voltage                       1                       # Voltage in Volts

---------- End Simulation Statistics   ----------
