Command line:
./runscript_pride.sh gcc RFM10.BR2.4C 4 2017 --rh_defense --rh_mitigation=RFM --rh_rfm_per_trefi=10 --rh_rfm_blast_radius=2 --rh_rfm_maxacts_per_trefi=79
Global frequency set at 1000000000000 ticks per second
RFM details - rfm_act_threshold: 7, blast_radius: 2, delay_per_rfm: 175000 ps. sample_rate: 0.125000
RH Defense config: RFM, Bus Delay: 0, rfms_per_trefi: 10, rfm_act_threshold: 7, blast_radius: 2,rfm_delay_per_act: 45000 ps.
DRAM config: RowsPerBank: 65536, BanksPerRank: 32, RanksPerChannel: 1
warn: Sockets disabled, not accepting gdb connections
warn: CoherentXBar system.cpu0.mmucache.mmubus has no snooping ports attached!
warn: CoherentXBar system.cpu1.mmucache.mmubus has no snooping ports attached!
warn: CoherentXBar system.cpu2.mmucache.mmubus has no snooping ports attached!
warn: CoherentXBar system.cpu3.mmucache.mmubus has no snooping ports attached!
warn: Checkpoints for file descriptors currently do not work.
warn: Checkpoints for file descriptors currently do not work.
warn: Checkpoints for file descriptors currently do not work.
warn: Checkpoints for file descriptors currently do not work.
gem5 Simulator System.  http://gem5.org
gem5 is copyrighted software; use the --copyright option for details.

gem5 version 20.1.0.5
gem5 compiled Jul 12 2024 12:42:38
gem5 started Aug  1 2024 18:42:14
gem5 executing on a07dda8b130c, pid 251182
command line: /home/user/PrIDE/performance/gem5/build/X86/gem5.opt --outdir=/home/user/PrIDE/performance/gem5/stats/pride_multiprogram_16GBmem_250Mn.SPEC2017.C4/RFM10.BR2.4C/gcc /home/user/PrIDE/performance/gem5/configs/example/se_rq_spec_config_multicore.py --redirects /lib64=/home/utils/gcc-6.2.0/lib64 --benchmark=gcc --benchmark_stdout=/home/user/PrIDE/performance/gem5/stats/pride_multiprogram_16GBmem_250Mn.SPEC2017.C4/RFM10.BR2.4C/gcc/gcc.out --benchmark_stderr=/home/user/PrIDE/performance/gem5/stats/pride_multiprogram_16GBmem_250Mn.SPEC2017.C4/RFM10.BR2.4C/gcc/gcc.err --spec-version=2017 --rh_defense --rh_mitigation=RFM --rh_rfm_per_trefi=10 --rh_rfm_blast_radius=2 --rh_rfm_maxacts_per_trefi=79 --num-cpus=4 --mem-size=16GB --mem-type=DDR5_2400_32x4 --mem-ranks=1 --mem-channels=1 --checkpoint-dir=/home/user/PrIDE/performance/gem5/cpts-DDR5/multiprogram_16GBmem_25Bn.SPEC2017.C4/gcc-1-ref-x86 --checkpoint-restore=25000000000 --at-instruction --cpu-type DerivO3CPU --caches --l2cache --l1d_size=32kB --l1i_size=32kB --l2_size=256kB --l3_size=4MB --l1d_assoc=8 --l1i_assoc=8 --l2_assoc=16 --l3_assoc=16 --cpu-clock=3GHz --sys-clock=3GHz --maxinsts=250000000 --prog-interval=300Hz

info: Standard input is not a terminal, disabling listeners.
Benchmark- 0   gcc
Selected benchmark
--> gcc
CMD: ['/opt/spec2017/benchspec/CPU/502.gcc_r/run/run_base_refrate_gem5_se-m64.0000/cpugcc_r_base.gem5_se-m64', '/opt/spec2017/benchspec/CPU/502.gcc_r/run/run_base_refrate_gem5_se-m64.0000/gcc-pp.c', '-O3', '-finline-limit=0', '-fif-conversion', '-fif-conversion2', '-o', '/opt/spec2017/benchspec/CPU/502.gcc_r/run/run_base_refrate_gem5_se-m64.0000/gcc-pp.opts-O3_-finline-limit_0_-fif-conversion_-fif-conversion2.s']
CWD: /opt/spec2017/benchspec/CPU/502.gcc_r/run/run_base_refrate_gem5_se-m64.0000/
Process stdout file: /home/user/PrIDE/performance/gem5/stats/pride_multiprogram_16GBmem_250Mn.SPEC2017.C4/RFM10.BR2.4C/gcc/gcc.out_0
Process stderr file: /home/user/PrIDE/performance/gem5/stats/pride_multiprogram_16GBmem_250Mn.SPEC2017.C4/RFM10.BR2.4C/gcc/gcc.err_0
Benchmark- 1   gcc
Selected benchmark
--> gcc
CMD: ['/opt/spec2017/benchspec/CPU/502.gcc_r/run/run_base_refrate_gem5_se-m64.0000/cpugcc_r_base.gem5_se-m64', '/opt/spec2017/benchspec/CPU/502.gcc_r/run/run_base_refrate_gem5_se-m64.0000/gcc-pp.c', '-O3', '-finline-limit=0', '-fif-conversion', '-fif-conversion2', '-o', '/opt/spec2017/benchspec/CPU/502.gcc_r/run/run_base_refrate_gem5_se-m64.0000/gcc-pp.opts-O3_-finline-limit_0_-fif-conversion_-fif-conversion2.s']
CWD: /opt/spec2017/benchspec/CPU/502.gcc_r/run/run_base_refrate_gem5_se-m64.0000/
Process stdout file: /home/user/PrIDE/performance/gem5/stats/pride_multiprogram_16GBmem_250Mn.SPEC2017.C4/RFM10.BR2.4C/gcc/gcc.out_1
Process stderr file: /home/user/PrIDE/performance/gem5/stats/pride_multiprogram_16GBmem_250Mn.SPEC2017.C4/RFM10.BR2.4C/gcc/gcc.err_1
Benchmark- 2   gcc
Selected benchmark
--> gcc
CMD: ['/opt/spec2017/benchspec/CPU/502.gcc_r/run/run_base_refrate_gem5_se-m64.0000/cpugcc_r_base.gem5_se-m64', '/opt/spec2017/benchspec/CPU/502.gcc_r/run/run_base_refrate_gem5_se-m64.0000/gcc-pp.c', '-O3', '-finline-limit=0', '-fif-conversion', '-fif-conversion2', '-o', '/opt/spec2017/benchspec/CPU/502.gcc_r/run/run_base_refrate_gem5_se-m64.0000/gcc-pp.opts-O3_-finline-limit_0_-fif-conversion_-fif-conversion2.s']
CWD: /opt/spec2017/benchspec/CPU/502.gcc_r/run/run_base_refrate_gem5_se-m64.0000/
Process stdout file: /home/user/PrIDE/performance/gem5/stats/pride_multiprogram_16GBmem_250Mn.SPEC2017.C4/RFM10.BR2.4C/gcc/gcc.out_2
Process stderr file: /home/user/PrIDE/performance/gem5/stats/pride_multiprogram_16GBmem_250Mn.SPEC2017.C4/RFM10.BR2.4C/gcc/gcc.err_2
Benchmark- 3   gcc
Selected benchmark
--> gcc
CMD: ['/opt/spec2017/benchspec/CPU/502.gcc_r/run/run_base_refrate_gem5_se-m64.0000/cpugcc_r_base.gem5_se-m64', '/opt/spec2017/benchspec/CPU/502.gcc_r/run/run_base_refrate_gem5_se-m64.0000/gcc-pp.c', '-O3', '-finline-limit=0', '-fif-conversion', '-fif-conversion2', '-o', '/opt/spec2017/benchspec/CPU/502.gcc_r/run/run_base_refrate_gem5_se-m64.0000/gcc-pp.opts-O3_-finline-limit_0_-fif-conversion_-fif-conversion2.s']
CWD: /opt/spec2017/benchspec/CPU/502.gcc_r/run/run_base_refrate_gem5_se-m64.0000/
Process stdout file: /home/user/PrIDE/performance/gem5/stats/pride_multiprogram_16GBmem_250Mn.SPEC2017.C4/RFM10.BR2.4C/gcc/gcc.out_3
Process stderr file: /home/user/PrIDE/performance/gem5/stats/pride_multiprogram_16GBmem_250Mn.SPEC2017.C4/RFM10.BR2.4C/gcc/gcc.err_3
Workload-0: 
['/opt/spec2017/benchspec/CPU/502.gcc_r/run/run_base_refrate_gem5_se-m64.0000/cpugcc_r_base.gem5_se-m64', '/opt/spec2017/benchspec/CPU/502.gcc_r/run/run_base_refrate_gem5_se-m64.0000/gcc-pp.c', '-O3', '-finline-limit=0', '-fif-conversion', '-fif-conversion2', '-o', '/opt/spec2017/benchspec/CPU/502.gcc_r/run/run_base_refrate_gem5_se-m64.0000/gcc-pp.opts-O3_-finline-limit_0_-fif-conversion_-fif-conversion2.s']
Workload-1: 
['/opt/spec2017/benchspec/CPU/502.gcc_r/run/run_base_refrate_gem5_se-m64.0000/cpugcc_r_base.gem5_se-m64', '/opt/spec2017/benchspec/CPU/502.gcc_r/run/run_base_refrate_gem5_se-m64.0000/gcc-pp.c', '-O3', '-finline-limit=0', '-fif-conversion', '-fif-conversion2', '-o', '/opt/spec2017/benchspec/CPU/502.gcc_r/run/run_base_refrate_gem5_se-m64.0000/gcc-pp.opts-O3_-finline-limit_0_-fif-conversion_-fif-conversion2.s']
Workload-2: 
['/opt/spec2017/benchspec/CPU/502.gcc_r/run/run_base_refrate_gem5_se-m64.0000/cpugcc_r_base.gem5_se-m64', '/opt/spec2017/benchspec/CPU/502.gcc_r/run/run_base_refrate_gem5_se-m64.0000/gcc-pp.c', '-O3', '-finline-limit=0', '-fif-conversion', '-fif-conversion2', '-o', '/opt/spec2017/benchspec/CPU/502.gcc_r/run/run_base_refrate_gem5_se-m64.0000/gcc-pp.opts-O3_-finline-limit_0_-fif-conversion_-fif-conversion2.s']
Workload-3: 
['/opt/spec2017/benchspec/CPU/502.gcc_r/run/run_base_refrate_gem5_se-m64.0000/cpugcc_r_base.gem5_se-m64', '/opt/spec2017/benchspec/CPU/502.gcc_r/run/run_base_refrate_gem5_se-m64.0000/gcc-pp.c', '-O3', '-finline-limit=0', '-fif-conversion', '-fif-conversion2', '-o', '/opt/spec2017/benchspec/CPU/502.gcc_r/run/run_base_refrate_gem5_se-m64.0000/gcc-pp.opts-O3_-finline-limit_0_-fif-conversion_-fif-conversion2.s']
defense_enable:  True  detector:  MG  mitigation:  RFM  threshold:  800
mg_entries:  1700
rfm_maxacts_per_trefi:  79 rfm_per_trefi:  10 rfm_blast_radius:  2
Switch at curTick count:10000
warn: membus.master is deprecated. `master` is now called `mem_side_ports`
warn: No dot file generated. Please install pydot to generate the dot file and pdf.
info: Entering event queue @ 18068450644485.  Starting simulation...
warn: PowerState: Already in the requested power state, request ignored
Switched CPUS @ tick 18068450654485
switching cpus
**** REAL SIMULATION ****
info: Entering event queue @ 18068450654485.  Starting simulation...
18071783977818: Event_285: system.switch_cpus3 progress event, total committed:17920022, progress insts committed: 17920022, IPC: 01.79021
18071783977818: Event_284: system.switch_cpus2 progress event, total committed:17923742, progress insts committed: 17923742, IPC: 01.79058
18071783977818: Event_283: system.switch_cpus1 progress event, total committed:17929583, progress insts committed: 17929583, IPC: 01.79117
18071783977818: Event_282: system.switch_cpus0 progress event, total committed:17925690, progress insts committed: 17925690, IPC: 01.79078
warn: MOVNTDQ: Ignoring non-temporal hint, modeling as cacheable!
18075117311151: Event_282: system.switch_cpus0 progress event, total committed:25617636, progress insts committed: 7691946, IPC: 0.768425
18075117311151: Event_283: system.switch_cpus1 progress event, total committed:25616783, progress insts committed: 7687200, IPC: 0.767951
18075117311151: Event_284: system.switch_cpus2 progress event, total committed:25601316, progress insts committed: 7677574, IPC: 00.76699
18075117311151: Event_285: system.switch_cpus3 progress event, total committed:25599051, progress insts committed: 7679029, IPC: 0.767135
18078450644484: Event_285: system.switch_cpus3 progress event, total committed:36203590, progress insts committed: 10604539, IPC: 01.05939
18078450644484: Event_284: system.switch_cpus2 progress event, total committed:36235452, progress insts committed: 10634136, IPC: 01.06235
18078450644484: Event_283: system.switch_cpus1 progress event, total committed:36753570, progress insts committed: 11136787, IPC: 01.11257
18078450644484: Event_282: system.switch_cpus0 progress event, total committed:36749578, progress insts committed: 11131942, IPC: 01.11208
18081783977817: Event_282: system.switch_cpus0 progress event, total committed:43377125, progress insts committed: 6627547, IPC: 0.662092
18081783977817: Event_283: system.switch_cpus1 progress event, total committed:43369996, progress insts committed: 6616426, IPC: 0.660981
18081783977817: Event_284: system.switch_cpus2 progress event, total committed:43151095, progress insts committed: 6915643, IPC: 0.690873
18081783977817: Event_285: system.switch_cpus3 progress event, total committed:43129488, progress insts committed: 6925898, IPC: 0.691897
18085117311150: Event_285: system.switch_cpus3 progress event, total committed:46381918, progress insts committed: 3252430, IPC: 0.324918
18085117311150: Event_284: system.switch_cpus2 progress event, total committed:46383206, progress insts committed: 3232111, IPC: 0.322888
18085117311150: Event_283: system.switch_cpus1 progress event, total committed:46450818, progress insts committed: 3080822, IPC: 0.307774
18085117311150: Event_282: system.switch_cpus0 progress event, total committed:46449090, progress insts committed: 3071965, IPC: 0.306889
18088450644483: Event_282: system.switch_cpus0 progress event, total committed:47679889, progress insts committed: 1230799, IPC: 0.122957
18088450644483: Event_283: system.switch_cpus1 progress event, total committed:47679889, progress insts committed: 1229071, IPC: 0.122784
18088450644483: Event_284: system.switch_cpus2 progress event, total committed:47409288, progress insts committed: 1026082, IPC: 0.102506
18088450644483: Event_285: system.switch_cpus3 progress event, total committed:47401796, progress insts committed: 1019878, IPC: 0.101886
18091783977816: Event_285: system.switch_cpus3 progress event, total committed:50904525, progress insts committed: 3502729, IPC: 0.349923
18091783977816: Event_284: system.switch_cpus2 progress event, total committed:50910085, progress insts committed: 3500797, IPC: 00.34973
18091783977816: Event_283: system.switch_cpus1 progress event, total committed:51193775, progress insts committed: 3513886, IPC: 0.351037
18091783977816: Event_282: system.switch_cpus0 progress event, total committed:51194591, progress insts committed: 3514702, IPC: 0.351119
18095117311149: Event_282: system.switch_cpus0 progress event, total committed:52745809, progress insts committed: 1551218, IPC: 0.154967
18095117311149: Event_283: system.switch_cpus1 progress event, total committed:52744549, progress insts committed: 1550774, IPC: 0.154922
18095117311149: Event_284: system.switch_cpus2 progress event, total committed:52546489, progress insts committed: 1636404, IPC: 0.163477
18095117311149: Event_285: system.switch_cpus3 progress event, total committed:52532592, progress insts committed: 1628067, IPC: 0.162644
18098450644482: Event_285: system.switch_cpus3 progress event, total committed:53622902, progress insts committed: 1090310, IPC: 0.108922
18098450644482: Event_284: system.switch_cpus2 progress event, total committed:54044878, progress insts committed: 1498389, IPC: 0.149689
18098450644482: Event_283: system.switch_cpus1 progress event, total committed:54076212, progress insts committed: 1331663, IPC: 0.133033
18098450644482: Event_282: system.switch_cpus0 progress event, total committed:54449780, progress insts committed: 1703971, IPC: 0.170227
18101783977815: Event_282: system.switch_cpus0 progress event, total committed:58668486, progress insts committed: 4218706, IPC: 0.421449
18101783977815: Event_283: system.switch_cpus1 progress event, total committed:58166615, progress insts committed: 4090403, IPC: 0.408631
18101783977815: Event_284: system.switch_cpus2 progress event, total committed:58159425, progress insts committed: 4114547, IPC: 0.411043
18101783977815: Event_285: system.switch_cpus3 progress event, total committed:57900011, progress insts committed: 4277109, IPC: 0.427283
18105117311148: Event_285: system.switch_cpus3 progress event, total committed:62710759, progress insts committed: 4810748, IPC: 0.480594
18105117311148: Event_284: system.switch_cpus2 progress event, total committed:62984000, progress insts committed: 4824575, IPC: 0.481975
18105117311148: Event_283: system.switch_cpus1 progress event, total committed:62986442, progress insts committed: 4819827, IPC: 0.481501
18105117311148: Event_282: system.switch_cpus0 progress event, total committed:63085496, progress insts committed: 4417010, IPC: 0.441259
18108450644481: Event_282: system.switch_cpus0 progress event, total committed:64815062, progress insts committed: 1729566, IPC: 0.172784
18108450644481: Event_283: system.switch_cpus1 progress event, total committed:64485881, progress insts committed: 1499439, IPC: 0.149794
18108450644481: Event_284: system.switch_cpus2 progress event, total committed:64482987, progress insts committed: 1498987, IPC: 0.149749
18108450644481: Event_285: system.switch_cpus3 progress event, total committed:64362338, progress insts committed: 1651579, IPC: 0.164993
18111783977814: Event_285: system.switch_cpus3 progress event, total committed:76108454, progress insts committed: 11746116, IPC: 01.17344
18111783977814: Event_284: system.switch_cpus2 progress event, total committed:77001275, progress insts committed: 12518288, IPC: 01.25058
18111783977814: Event_283: system.switch_cpus1 progress event, total committed:77019833, progress insts committed: 12533952, IPC: 01.25214
18111783977814: Event_282: system.switch_cpus0 progress event, total committed:77415838, progress insts committed: 12600776, IPC: 01.25882
18115117311147: Event_282: system.switch_cpus0 progress event, total committed:90406459, progress insts committed: 12990621, IPC: 01.29776
18115117311147: Event_283: system.switch_cpus1 progress event, total committed:90044930, progress insts committed: 13025097, IPC: 01.30121
18115117311147: Event_284: system.switch_cpus2 progress event, total committed:89951807, progress insts committed: 12950532, IPC: 01.29376
18115117311147: Event_285: system.switch_cpus3 progress event, total committed:88876558, progress insts committed: 12768104, IPC: 01.27553
18118450644480: Event_285: system.switch_cpus3 progress event, total committed:102079563, progress insts committed: 13203005, IPC: 01.31898
18118450644480: Event_284: system.switch_cpus2 progress event, total committed:103068601, progress insts committed: 13116794, IPC: 01.31037
18118450644480: Event_283: system.switch_cpus1 progress event, total committed:103202921, progress insts committed: 13157991, IPC: 01.31448
18118450644480: Event_282: system.switch_cpus0 progress event, total committed:103504984, progress insts committed: 13098525, IPC: 01.30854
18121783977813: Event_282: system.switch_cpus0 progress event, total committed:115761196, progress insts committed: 12256212, IPC: 001.2244
18121783977813: Event_283: system.switch_cpus1 progress event, total committed:115437772, progress insts committed: 12234851, IPC: 01.22226
18121783977813: Event_284: system.switch_cpus2 progress event, total committed:115318165, progress insts committed: 12249564, IPC: 01.22373
18121783977813: Event_285: system.switch_cpus3 progress event, total committed:114235873, progress insts committed: 12156310, IPC: 01.21442
18125117311146: Event_285: system.switch_cpus3 progress event, total committed:126124994, progress insts committed: 11889121, IPC: 01.18772
18125117311146: Event_284: system.switch_cpus2 progress event, total committed:127048596, progress insts committed: 11730431, IPC: 01.17187
18125117311146: Event_283: system.switch_cpus1 progress event, total committed:127150320, progress insts committed: 11712548, IPC: 01.17008
18125117311146: Event_282: system.switch_cpus0 progress event, total committed:127410220, progress insts committed: 11649024, IPC: 01.16374
18128450644479: Event_282: system.switch_cpus0 progress event, total committed:137775847, progress insts committed: 10365627, IPC: 01.03553
18128450644479: Event_283: system.switch_cpus1 progress event, total committed:137548126, progress insts committed: 10397806, IPC: 01.03874
18128450644479: Event_284: system.switch_cpus2 progress event, total committed:137460070, progress insts committed: 10411474, IPC: 01.04011
18128450644479: Event_285: system.switch_cpus3 progress event, total committed:136737849, progress insts committed: 10612855, IPC: 01.06022
18131783977812: Event_285: system.switch_cpus3 progress event, total committed:141544722, progress insts committed: 4806873, IPC: 0.480207
18131783977812: Event_284: system.switch_cpus2 progress event, total committed:141665438, progress insts committed: 4205368, IPC: 0.420116
18131783977812: Event_283: system.switch_cpus1 progress event, total committed:141679945, progress insts committed: 4131819, IPC: 0.412769
18131783977812: Event_282: system.switch_cpus0 progress event, total committed:141738269, progress insts committed: 3962422, IPC: 0.395846
18135117311145: Event_282: system.switch_cpus0 progress event, total committed:142939623, progress insts committed: 1201354, IPC: 0.120015
18135117311145: Event_283: system.switch_cpus1 progress event, total committed:142726325, progress insts committed: 1046380, IPC: 0.104533
18135117311145: Event_284: system.switch_cpus2 progress event, total committed:142683999, progress insts committed: 1018561, IPC: 0.101754
18135117311145: Event_285: system.switch_cpus3 progress event, total committed:142571936, progress insts committed: 1027214, IPC: 0.102619
18138450644478: Event_285: system.switch_cpus3 progress event, total committed:143611549, progress insts committed: 1039613, IPC: 0.103857
18138450644478: Event_284: system.switch_cpus2 progress event, total committed:143863365, progress insts committed: 1179366, IPC: 0.117819
18138450644478: Event_283: system.switch_cpus1 progress event, total committed:143948901, progress insts committed: 1222576, IPC: 0.122135
18138450644478: Event_282: system.switch_cpus0 progress event, total committed:144362081, progress insts committed: 1422458, IPC: 0.142104
18141783977811: Event_282: system.switch_cpus0 progress event, total committed:148080726, progress insts committed: 3718645, IPC: 0.371493
18141783977811: Event_283: system.switch_cpus1 progress event, total committed:147700455, progress insts committed: 3751554, IPC: 00.37478
18141783977811: Event_284: system.switch_cpus2 progress event, total committed:147599870, progress insts committed: 3736505, IPC: 0.373277
18141783977811: Event_285: system.switch_cpus3 progress event, total committed:147306719, progress insts committed: 3695170, IPC: 0.369147
18145117311144: Event_285: system.switch_cpus3 progress event, total committed:148387477, progress insts committed: 1080758, IPC: 0.107968
18145117311144: Event_284: system.switch_cpus2 progress event, total committed:148518839, progress insts committed: 918969, IPC: 0.091805
18145117311144: Event_283: system.switch_cpus1 progress event, total committed:148565765, progress insts committed: 865310, IPC: 0.0864445
18145117311144: Event_282: system.switch_cpus0 progress event, total committed:148861970, progress insts committed: 781244, IPC: 0.0780463
18148450644477: Event_282: system.switch_cpus0 progress event, total committed:152026007, progress insts committed: 3164037, IPC: 0.316087
18148450644477: Event_283: system.switch_cpus1 progress event, total committed:150606972, progress insts committed: 2041207, IPC: 0.203917
18148450644477: Event_284: system.switch_cpus2 progress event, total committed:150460651, progress insts committed: 1941812, IPC: 0.193987
18148450644477: Event_285: system.switch_cpus3 progress event, total committed:150355746, progress insts committed: 1968269, IPC: 00.19663
18151783977810: Event_285: system.switch_cpus3 progress event, total committed:152587704, progress insts committed: 2231958, IPC: 0.222973
18151783977810: Event_284: system.switch_cpus2 progress event, total committed:152557618, progress insts committed: 2096967, IPC: 0.209487
18151783977810: Event_283: system.switch_cpus1 progress event, total committed:152573298, progress insts committed: 1966326, IPC: 0.196436
18151783977810: Event_282: system.switch_cpus0 progress event, total committed:153690662, progress insts committed: 1664655, IPC: 0.166299
18155117311143: Event_282: system.switch_cpus0 progress event, total committed:156392161, progress insts committed: 2701499, IPC: 00.26988
18155117311143: Event_283: system.switch_cpus1 progress event, total committed:154759653, progress insts committed: 2186355, IPC: 0.218417
18155117311143: Event_284: system.switch_cpus2 progress event, total committed:154627138, progress insts committed: 2069520, IPC: 0.206745
18155117311143: Event_285: system.switch_cpus3 progress event, total committed:154882056, progress insts committed: 2294352, IPC: 0.229206
18158450644476: Event_285: system.switch_cpus3 progress event, total committed:157565543, progress insts committed: 2683487, IPC: 00.26808
18158450644476: Event_284: system.switch_cpus2 progress event, total committed:157304967, progress insts committed: 2677829, IPC: 0.267515
18158450644476: Event_283: system.switch_cpus1 progress event, total committed:157437656, progress insts committed: 2678003, IPC: 0.267532
18158450644476: Event_282: system.switch_cpus0 progress event, total committed:157923921, progress insts committed: 1531760, IPC: 0.153023
18161783977809: Event_282: system.switch_cpus0 progress event, total committed:164246731, progress insts committed: 6322810, IPC: 0.631649
18161783977809: Event_283: system.switch_cpus1 progress event, total committed:160986854, progress insts committed: 3549198, IPC: 0.354565
18161783977809: Event_284: system.switch_cpus2 progress event, total committed:160702419, progress insts committed: 3397452, IPC: 0.339405
18161783977809: Event_285: system.switch_cpus3 progress event, total committed:161285980, progress insts committed: 3720437, IPC: 0.371672
src/tcmalloc.cc:283] Attempt to free invalid pointer 0xefce9205 
Program aborted at tick 18161872766181
--- BEGIN LIBC BACKTRACE ---
/home/user/PrIDE/performance/gem5/build/X86/gem5.opt(_Z15print_backtracev+0x2c)[0x562df01195ac]
/home/user/PrIDE/performance/gem5/build/X86/gem5.opt(_Z12abortHandleri+0x4a)[0x562df012c0ca]
/lib/x86_64-linux-gnu/libpthread.so.0(+0x12980)[0x7a009630e980]
/lib/x86_64-linux-gnu/libc.so.6(gsignal+0xc7)[0x7a0094806e87]
/lib/x86_64-linux-gnu/libc.so.6(abort+0x141)[0x7a00948087f1]
/usr/lib/x86_64-linux-gnu/libtcmalloc.so.4(_ZN8tcmalloc3LogENS_7LogModeEPKciNS_7LogItemES3_S3_S3_+0x229)[0x7a009582bfb9]
/usr/lib/x86_64-linux-gnu/libtcmalloc.so.4(+0x13d49)[0x7a009581fd49]
/usr/lib/x86_64-linux-gnu/libtcmalloc.so.4(cfree+0x299)[0x7a009583f6b9]
/home/user/PrIDE/performance/gem5/build/X86/gem5.opt(_ZN6X86ISA7Decoder10decodeInstENS_11ExtMachInstE+0x5d196)[0x562df05b79b6]
/home/user/PrIDE/performance/gem5/build/X86/gem5.opt(_ZN6X86ISA7Decoder6decodeENS_11ExtMachInstEm+0x244)[0x562df05203b4]
/home/user/PrIDE/performance/gem5/build/X86/gem5.opt(_ZN6X86ISA7Decoder6decodeERNS_7PCStateE+0x22b)[0x562df05206ab]
/home/user/PrIDE/performance/gem5/build/X86/gem5.opt(_ZN12DefaultFetchI9O3CPUImplE5fetchERb+0x942)[0x562df0bb5832]
/home/user/PrIDE/performance/gem5/build/X86/gem5.opt(_ZN12DefaultFetchI9O3CPUImplE4tickEv+0xd3)[0x562df0bb69f3]
/home/user/PrIDE/performance/gem5/build/X86/gem5.opt(_ZN9FullO3CPUI9O3CPUImplE4tickEv+0x12b)[0x562df0b9516b]
/home/user/PrIDE/performance/gem5/build/X86/gem5.opt(_ZN10EventQueue10serviceOneEv+0xa5)[0x562df0121a85]
/home/user/PrIDE/performance/gem5/build/X86/gem5.opt(_Z9doSimLoopP10EventQueue+0x87)[0x562df0146b47]
/home/user/PrIDE/performance/gem5/build/X86/gem5.opt(_Z8simulatem+0xcba)[0x562df0147b9a]
/home/user/PrIDE/performance/gem5/build/X86/gem5.opt(+0x14aa4e1)[0x562df0aaa4e1]
/home/user/PrIDE/performance/gem5/build/X86/gem5.opt(+0x888be9)[0x562defe88be9]
/usr/lib/x86_64-linux-gnu/libpython3.6m.so.1.0(PyCFunction_Call+0x96)[0x7a009672e736]
/usr/lib/x86_64-linux-gnu/libpython3.6m.so.1.0(_PyEval_EvalFrameDefault+0x76e0)[0x7a009669fb20]
/usr/lib/x86_64-linux-gnu/libpython3.6m.so.1.0(+0x17ba0f)[0x7a0096696a0f]
/usr/lib/x86_64-linux-gnu/libpython3.6m.so.1.0(+0x17c0fc)[0x7a00966970fc]
/usr/lib/x86_64-linux-gnu/libpython3.6m.so.1.0(_PyEval_EvalFrameDefault+0x4ec3)[0x7a009669d303]
/usr/lib/x86_64-linux-gnu/libpython3.6m.so.1.0(+0x17a803)[0x7a0096695803]
/usr/lib/x86_64-linux-gnu/libpython3.6m.so.1.0(+0x17c2be)[0x7a00966972be]
/usr/lib/x86_64-linux-gnu/libpython3.6m.so.1.0(_PyEval_EvalFrameDefault+0x4ec3)[0x7a009669d303]
/usr/lib/x86_64-linux-gnu/libpython3.6m.so.1.0(+0x17ba0f)[0x7a0096696a0f]
/usr/lib/x86_64-linux-gnu/libpython3.6m.so.1.0(+0x17c0fc)[0x7a00966970fc]
/usr/lib/x86_64-linux-gnu/libpython3.6m.so.1.0(_PyEval_EvalFrameDefault+0x4ec3)[0x7a009669d303]
/usr/lib/x86_64-linux-gnu/libpython3.6m.so.1.0(+0x17ba0f)[0x7a0096696a0f]
/usr/lib/x86_64-linux-gnu/libpython3.6m.so.1.0(PyEval_EvalCodeEx+0x3e)[0x7a00966974ce]
--- END LIBC BACKTRACE ---
