Command line:
./runscript_pride.sh mix10 RFM10.BR2.4C 4 2017 --rh_defense --rh_mitigation=RFM --rh_rfm_per_trefi=10 --rh_rfm_blast_radius=2 --rh_rfm_maxacts_per_trefi=79
Global frequency set at 1000000000000 ticks per second
RFM details - rfm_act_threshold: 7, blast_radius: 2, delay_per_rfm: 175000 ps. sample_rate: 0.125000
RH Defense config: RFM, Bus Delay: 0, rfms_per_trefi: 10, rfm_act_threshold: 7, blast_radius: 2,rfm_delay_per_act: 45000 ps.
DRAM config: RowsPerBank: 65536, BanksPerRank: 32, RanksPerChannel: 1
warn: Sockets disabled, not accepting gdb connections
warn: CoherentXBar system.cpu0.mmucache.mmubus has no snooping ports attached!
warn: CoherentXBar system.cpu1.mmucache.mmubus has no snooping ports attached!
warn: CoherentXBar system.cpu2.mmucache.mmubus has no snooping ports attached!
warn: CoherentXBar system.cpu3.mmucache.mmubus has no snooping ports attached!
warn: Checkpoints for file descriptors currently do not work.
warn: Checkpoints for file descriptors currently do not work.
warn: Checkpoints for file descriptors currently do not work.
warn: Checkpoints for file descriptors currently do not work.
gem5 Simulator System.  http://gem5.org
gem5 is copyrighted software; use the --copyright option for details.

gem5 version 20.1.0.5
gem5 compiled Jul 12 2024 12:42:38
gem5 started Aug  1 2024 19:27:15
gem5 executing on a07dda8b130c, pid 252072
command line: /home/user/PrIDE/performance/gem5/build/X86/gem5.opt --outdir=/home/user/PrIDE/performance/gem5/stats/pride_multiprogram_16GBmem_250Mn.SPEC2017.C4/RFM10.BR2.4C/mix10 /home/user/PrIDE/performance/gem5/configs/example/se_rq_spec_config_multicore.py --redirects /lib64=/home/utils/gcc-6.2.0/lib64 --benchmark=mix10 --benchmark_stdout=/home/user/PrIDE/performance/gem5/stats/pride_multiprogram_16GBmem_250Mn.SPEC2017.C4/RFM10.BR2.4C/mix10/mix10.out --benchmark_stderr=/home/user/PrIDE/performance/gem5/stats/pride_multiprogram_16GBmem_250Mn.SPEC2017.C4/RFM10.BR2.4C/mix10/mix10.err --spec-version=2017 --rh_defense --rh_mitigation=RFM --rh_rfm_per_trefi=10 --rh_rfm_blast_radius=2 --rh_rfm_maxacts_per_trefi=79 --num-cpus=4 --mem-size=16GB --mem-type=DDR5_2400_32x4 --mem-ranks=1 --mem-channels=1 --checkpoint-dir=/home/user/PrIDE/performance/gem5/cpts-DDR5/multiprogram_16GBmem_25Bn.SPEC2017.C4/mix10-1-ref-x86 --checkpoint-restore=25000000000 --at-instruction --cpu-type DerivO3CPU --caches --l2cache --l1d_size=32kB --l1i_size=32kB --l2_size=256kB --l3_size=4MB --l1d_assoc=8 --l1i_assoc=8 --l2_assoc=16 --l3_assoc=16 --cpu-clock=3GHz --sys-clock=3GHz --maxinsts=250000000 --prog-interval=300Hz

info: Standard input is not a terminal, disabling listeners.
Benchmark- 0   wrf
Selected benchmark
--> wrf
CMD: ['/opt/spec2017/benchspec/CPU/521.wrf_r/run/run_base_refrate_gem5_se-m64.0000/wrf_r_base.gem5_se-m64']
CWD: /opt/spec2017/benchspec/CPU/521.wrf_r/run/run_base_refrate_gem5_se-m64.0000/
Process stdout file: /home/user/PrIDE/performance/gem5/stats/pride_multiprogram_16GBmem_250Mn.SPEC2017.C4/RFM10.BR2.4C/mix10/mix10.out_0
Process stderr file: /home/user/PrIDE/performance/gem5/stats/pride_multiprogram_16GBmem_250Mn.SPEC2017.C4/RFM10.BR2.4C/mix10/mix10.err_0
Benchmark- 1   povray
Selected benchmark
--> povray
CMD: ['/opt/spec2017/benchspec/CPU/511.povray_r/run/run_base_refrate_gem5_se-m64.0000/povray_r_base.gem5_se-m64', '/opt/spec2017/benchspec/CPU/511.povray_r/run/run_base_refrate_gem5_se-m64.0000/SPEC-benchmark-ref.ini']
CWD: /opt/spec2017/benchspec/CPU/511.povray_r/run/run_base_refrate_gem5_se-m64.0000/
Process stdout file: /home/user/PrIDE/performance/gem5/stats/pride_multiprogram_16GBmem_250Mn.SPEC2017.C4/RFM10.BR2.4C/mix10/mix10.out_1
Process stderr file: /home/user/PrIDE/performance/gem5/stats/pride_multiprogram_16GBmem_250Mn.SPEC2017.C4/RFM10.BR2.4C/mix10/mix10.err_1
Benchmark- 2   mcf
Selected benchmark
--> mcf
CMD: ['/opt/spec2017/benchspec/CPU/505.mcf_r/run/run_base_refrate_gem5_se-m64.0000/mcf_r_base.gem5_se-m64', '/opt/spec2017/benchspec/CPU/505.mcf_r/run/run_base_refrate_gem5_se-m64.0000/inp.in']
CWD: /opt/spec2017/benchspec/CPU/505.mcf_r/run/run_base_refrate_gem5_se-m64.0000/
Process stdout file: /home/user/PrIDE/performance/gem5/stats/pride_multiprogram_16GBmem_250Mn.SPEC2017.C4/RFM10.BR2.4C/mix10/mix10.out_2
Process stderr file: /home/user/PrIDE/performance/gem5/stats/pride_multiprogram_16GBmem_250Mn.SPEC2017.C4/RFM10.BR2.4C/mix10/mix10.err_2
Benchmark- 3   nab
Selected benchmark
--> nab
CMD: ['/opt/spec2017/benchspec/CPU/544.nab_r/run/run_base_refrate_gem5_se-m64.0000/nab_r_base.gem5_se-m64', '1am0', '1122214447', '122']
CWD: /opt/spec2017/benchspec/CPU/544.nab_r/run/run_base_refrate_gem5_se-m64.0000/
Process stdout file: /home/user/PrIDE/performance/gem5/stats/pride_multiprogram_16GBmem_250Mn.SPEC2017.C4/RFM10.BR2.4C/mix10/mix10.out_3
Process stderr file: /home/user/PrIDE/performance/gem5/stats/pride_multiprogram_16GBmem_250Mn.SPEC2017.C4/RFM10.BR2.4C/mix10/mix10.err_3
Workload-0: 
['/opt/spec2017/benchspec/CPU/521.wrf_r/run/run_base_refrate_gem5_se-m64.0000/wrf_r_base.gem5_se-m64']
Workload-1: 
['/opt/spec2017/benchspec/CPU/511.povray_r/run/run_base_refrate_gem5_se-m64.0000/povray_r_base.gem5_se-m64', '/opt/spec2017/benchspec/CPU/511.povray_r/run/run_base_refrate_gem5_se-m64.0000/SPEC-benchmark-ref.ini']
Workload-2: 
['/opt/spec2017/benchspec/CPU/505.mcf_r/run/run_base_refrate_gem5_se-m64.0000/mcf_r_base.gem5_se-m64', '/opt/spec2017/benchspec/CPU/505.mcf_r/run/run_base_refrate_gem5_se-m64.0000/inp.in']
Workload-3: 
['/opt/spec2017/benchspec/CPU/544.nab_r/run/run_base_refrate_gem5_se-m64.0000/nab_r_base.gem5_se-m64', '1am0', '1122214447', '122']
defense_enable:  True  detector:  MG  mitigation:  RFM  threshold:  800
mg_entries:  1700
rfm_maxacts_per_trefi:  79 rfm_per_trefi:  10 rfm_blast_radius:  2
Switch at curTick count:10000
warn: membus.master is deprecated. `master` is now called `mem_side_ports`
warn: No dot file generated. Please install pydot to generate the dot file and pdf.
info: Entering event queue @ 16815150906111.  Starting simulation...
info: Entering event queue @ 16815150916111.  Starting simulation...
warn: PowerState: Already in the requested power state, request ignored
Switched CPUS @ tick 16815150916111
switching cpus
**** REAL SIMULATION ****
info: Entering event queue @ 16815150916434.  Starting simulation...
warn: MOVNTDQ: Ignoring non-temporal hint, modeling as cacheable!
16818484239444: Event_285: system.switch_cpus3 progress event, total committed:28067997, progress insts committed: 28067997, IPC: 02.80399
16818484239444: Event_284: system.switch_cpus2 progress event, total committed:11435757, progress insts committed: 11435757, IPC: 01.14243
16818484239444: Event_283: system.switch_cpus1 progress event, total committed:44339787, progress insts committed: 44339787, IPC: 04.42954
16818484239444: Event_282: system.switch_cpus0 progress event, total committed:36705045, progress insts committed: 36705045, IPC: 03.66683
16821817572777: Event_282: system.switch_cpus0 progress event, total committed:74030229, progress insts committed: 37325184, IPC: 03.72879
16821817572777: Event_283: system.switch_cpus1 progress event, total committed:89501718, progress insts committed: 45161931, IPC: 04.51168
16821817572777: Event_284: system.switch_cpus2 progress event, total committed:23941329, progress insts committed: 12505572, IPC: 01.24931
16821817572777: Event_285: system.switch_cpus3 progress event, total committed:57385057, progress insts committed: 29317060, IPC: 02.92877
16825150906110: Event_285: system.switch_cpus3 progress event, total committed:86562823, progress insts committed: 29177766, IPC: 02.91486
16825150906110: Event_284: system.switch_cpus2 progress event, total committed:36324774, progress insts committed: 12383445, IPC: 01.23711
16825150906110: Event_283: system.switch_cpus1 progress event, total committed:134681499, progress insts committed: 45179781, IPC: 04.51346
16825150906110: Event_282: system.switch_cpus0 progress event, total committed:111498492, progress insts committed: 37468263, IPC: 03.74308
16828484239443: Event_282: system.switch_cpus0 progress event, total committed:149214780, progress insts committed: 37716288, IPC: 03.76786
16828484239443: Event_283: system.switch_cpus1 progress event, total committed:179941498, progress insts committed: 45259999, IPC: 04.52147
16828484239443: Event_284: system.switch_cpus2 progress event, total committed:49294602, progress insts committed: 12969828, IPC: 01.29569
16828484239443: Event_285: system.switch_cpus3 progress event, total committed:115959806, progress insts committed: 29396983, IPC: 02.93676
16831817572776: Event_285: system.switch_cpus3 progress event, total committed:145298055, progress insts committed: 29338249, IPC: 02.93089
16831817572776: Event_284: system.switch_cpus2 progress event, total committed:61452890, progress insts committed: 12158288, IPC: 01.21461
16831817572776: Event_283: system.switch_cpus1 progress event, total committed:225204915, progress insts committed: 45263417, IPC: 04.52182
16831817572776: Event_282: system.switch_cpus0 progress event, total committed:177876098, progress insts committed: 28661318, IPC: 02.86327
16835150906109: Event_282: system.switch_cpus0 progress event, total committed:201085705, progress insts committed: 23209607, IPC: 02.31864
16835150906109: Event_283: system.switch_cpus1 progress event, total committed:270737504, progress insts committed: 45532589, IPC: 04.54871
16835150906109: Event_284: system.switch_cpus2 progress event, total committed:73446738, progress insts committed: 11993848, IPC: 01.19819
16835150906109: Event_285: system.switch_cpus3 progress event, total committed:174383860, progress insts committed: 29085805, IPC: 02.90567
16838484239442: Event_285: system.switch_cpus3 progress event, total committed:203115791, progress insts committed: 28731931, IPC: 02.87032
16838484239442: Event_284: system.switch_cpus2 progress event, total committed:85627077, progress insts committed: 12180339, IPC: 01.21682
16838484239442: Event_283: system.switch_cpus1 progress event, total committed:316624382, progress insts committed: 45886878, IPC: 004.5841
16838484239442: Event_282: system.switch_cpus0 progress event, total committed:223229301, progress insts committed: 22143596, IPC: 02.21215
16841817572775: Event_282: system.switch_cpus0 progress event, total committed:226086663, progress insts committed: 2857362, IPC: 00.28545
16841817572775: Event_283: system.switch_cpus1 progress event, total committed:360599578, progress insts committed: 43975196, IPC: 04.39312
16841817572775: Event_284: system.switch_cpus2 progress event, total committed:97408350, progress insts committed: 11781273, IPC: 01.17695
16841817572775: Event_285: system.switch_cpus3 progress event, total committed:231205733, progress insts committed: 28089942, IPC: 02.80619
16845150906108: Event_285: system.switch_cpus3 progress event, total committed:258568593, progress insts committed: 27362860, IPC: 02.73355
16845150906108: Event_284: system.switch_cpus2 progress event, total committed:108661045, progress insts committed: 11252695, IPC: 01.12414
16845150906108: Event_283: system.switch_cpus1 progress event, total committed:405632016, progress insts committed: 45032438, IPC: 04.49874
16845150906108: Event_282: system.switch_cpus0 progress event, total committed:228012606, progress insts committed: 1925943, IPC: 0.192402
Exiting @ tick 16848470075256 because a thread reached the max instruction count
