
---------- Begin Simulation Statistics ----------
final_tick                               16848470075256                       # Number of ticks from beginning of simulation (restored from checkpoints and never reset)
host_inst_rate                                 159883                       # Simulator instruction rate (inst/s)
host_mem_usage                               17215648                       # Number of bytes of host memory used
host_op_rate                                   273950                       # Simulator op (including micro ops) rate (op/s)
host_seconds                                  3962.12                       # Real time elapsed on the host
host_tick_rate                                8409425                       # Simulator tick rate (ticks/s)
sim_freq                                 1000000000000                       # Frequency of simulated ticks
sim_insts                                   633475696                       # Number of instructions simulated
sim_ops                                    1085424030                       # Number of ops (including micro ops) simulated
sim_seconds                                  0.033319                       # Number of seconds simulated
sim_ticks                                 33319169145                       # Number of ticks simulated
system.cpu0.Branches                                1                       # Number of branches fetched
system.cpu0.committedInsts                         14                       # Number of instructions committed
system.cpu0.committedOps                           23                       # Number of ops (including micro ops) committed
system.cpu0.idle_fraction                           0                       # Percentage of idle cycles
system.cpu0.l2bus.snoop_filter.hit_multi_requests          615                       # Number of requests hitting in the snoop filter with multiple (>1) holders of the requested data.
system.cpu0.l2bus.snoop_filter.hit_multi_snoops            0                       # Number of snoops hitting in the snoop filter with multiple (>1) holders of the requested data.
system.cpu0.l2bus.snoop_filter.hit_single_requests      1441385                       # Number of requests hitting in the snoop filter with a single holder of the requested data.
system.cpu0.l2bus.snoop_filter.hit_single_snoops         2227                       # Number of snoops hitting in the snoop filter with a single holder of the requested data.
system.cpu0.l2bus.snoop_filter.tot_requests      2883745                       # Total number of requests made to the snoop filter.
system.cpu0.l2bus.snoop_filter.tot_snoops         2227                       # Total number of snoops made to the snoop filter.
system.cpu0.mmucache.mmubus.snoop_filter.hit_multi_requests            0                       # Number of requests hitting in the snoop filter with multiple (>1) holders of the requested data.
system.cpu0.mmucache.mmubus.snoop_filter.hit_multi_snoops            0                       # Number of snoops hitting in the snoop filter with multiple (>1) holders of the requested data.
system.cpu0.mmucache.mmubus.snoop_filter.hit_single_requests            0                       # Number of requests hitting in the snoop filter with a single holder of the requested data.
system.cpu0.mmucache.mmubus.snoop_filter.hit_single_snoops            0                       # Number of snoops hitting in the snoop filter with a single holder of the requested data.
system.cpu0.mmucache.mmubus.snoop_filter.tot_requests            0                       # Total number of requests made to the snoop filter.
system.cpu0.mmucache.mmubus.snoop_filter.tot_snoops            0                       # Total number of snoops made to the snoop filter.
system.cpu0.not_idle_fraction                       1                       # Percentage of non-idle cycles
system.cpu0.numCycles                              31                       # number of cpu cycles simulated
system.cpu0.numWorkItemsCompleted                   0                       # number of work items this cpu completed
system.cpu0.numWorkItemsStarted                     0                       # number of work items this cpu started
system.cpu0.num_busy_cycles                        31                       # Number of busy cycles
system.cpu0.num_conditional_control_insts            0                       # number of instructions that are conditional controls
system.cpu0.num_fp_alu_accesses                    17                       # Number of float alu accesses
system.cpu0.num_fp_insts                           17                       # number of float instructions
system.cpu0.num_fp_register_reads                  33                       # number of times the floating registers were read
system.cpu0.num_fp_register_writes                 17                       # number of times the floating registers were written
system.cpu0.num_func_calls                          1                       # number of times a function call or return occured
system.cpu0.num_idle_cycles                         0                       # Number of idle cycles
system.cpu0.num_int_alu_accesses                   10                       # Number of integer alu accesses
system.cpu0.num_int_insts                          10                       # number of integer instructions
system.cpu0.num_int_register_reads                 24                       # number of times the integer registers were read
system.cpu0.num_int_register_writes                 4                       # number of times the integer registers were written
system.cpu0.num_load_insts                          5                       # Number of load instructions
system.cpu0.num_mem_refs                            6                       # number of memory refs
system.cpu0.num_store_insts                         1                       # Number of store instructions
system.cpu0.num_vec_alu_accesses                    0                       # Number of vector alu accesses
system.cpu0.num_vec_insts                           0                       # number of vector instructions
system.cpu0.num_vec_register_reads                  0                       # number of times the vector registers were read
system.cpu0.num_vec_register_writes                 0                       # number of times the vector registers were written
system.cpu0.op_class::No_OpClass                    0      0.00%      0.00% # Class of executed instruction
system.cpu0.op_class::IntAlu                        4     17.39%     17.39% # Class of executed instruction
system.cpu0.op_class::IntMult                       0      0.00%     17.39% # Class of executed instruction
system.cpu0.op_class::IntDiv                        0      0.00%     17.39% # Class of executed instruction
system.cpu0.op_class::FloatAdd                      1      4.35%     21.74% # Class of executed instruction
system.cpu0.op_class::FloatCmp                      0      0.00%     21.74% # Class of executed instruction
system.cpu0.op_class::FloatCvt                      0      0.00%     21.74% # Class of executed instruction
system.cpu0.op_class::FloatMult                     0      0.00%     21.74% # Class of executed instruction
system.cpu0.op_class::FloatMultAcc                  0      0.00%     21.74% # Class of executed instruction
system.cpu0.op_class::FloatDiv                      0      0.00%     21.74% # Class of executed instruction
system.cpu0.op_class::FloatMisc                     0      0.00%     21.74% # Class of executed instruction
system.cpu0.op_class::FloatSqrt                     0      0.00%     21.74% # Class of executed instruction
system.cpu0.op_class::SimdAdd                       0      0.00%     21.74% # Class of executed instruction
system.cpu0.op_class::SimdAddAcc                    0      0.00%     21.74% # Class of executed instruction
system.cpu0.op_class::SimdAlu                       2      8.70%     30.43% # Class of executed instruction
system.cpu0.op_class::SimdCmp                       0      0.00%     30.43% # Class of executed instruction
system.cpu0.op_class::SimdCvt                       0      0.00%     30.43% # Class of executed instruction
system.cpu0.op_class::SimdMisc                      0      0.00%     30.43% # Class of executed instruction
system.cpu0.op_class::SimdMult                      0      0.00%     30.43% # Class of executed instruction
system.cpu0.op_class::SimdMultAcc                   0      0.00%     30.43% # Class of executed instruction
system.cpu0.op_class::SimdShift                     0      0.00%     30.43% # Class of executed instruction
system.cpu0.op_class::SimdShiftAcc                  0      0.00%     30.43% # Class of executed instruction
system.cpu0.op_class::SimdDiv                       0      0.00%     30.43% # Class of executed instruction
system.cpu0.op_class::SimdSqrt                      0      0.00%     30.43% # Class of executed instruction
system.cpu0.op_class::SimdFloatAdd                  4     17.39%     47.83% # Class of executed instruction
system.cpu0.op_class::SimdFloatAlu                  0      0.00%     47.83% # Class of executed instruction
system.cpu0.op_class::SimdFloatCmp                  0      0.00%     47.83% # Class of executed instruction
system.cpu0.op_class::SimdFloatCvt                  1      4.35%     52.17% # Class of executed instruction
system.cpu0.op_class::SimdFloatDiv                  0      0.00%     52.17% # Class of executed instruction
system.cpu0.op_class::SimdFloatMisc                 0      0.00%     52.17% # Class of executed instruction
system.cpu0.op_class::SimdFloatMult                 5     21.74%     73.91% # Class of executed instruction
system.cpu0.op_class::SimdFloatMultAcc              0      0.00%     73.91% # Class of executed instruction
system.cpu0.op_class::SimdFloatSqrt                 0      0.00%     73.91% # Class of executed instruction
system.cpu0.op_class::SimdReduceAdd                 0      0.00%     73.91% # Class of executed instruction
system.cpu0.op_class::SimdReduceAlu                 0      0.00%     73.91% # Class of executed instruction
system.cpu0.op_class::SimdReduceCmp                 0      0.00%     73.91% # Class of executed instruction
system.cpu0.op_class::SimdFloatReduceAdd            0      0.00%     73.91% # Class of executed instruction
system.cpu0.op_class::SimdFloatReduceCmp            0      0.00%     73.91% # Class of executed instruction
system.cpu0.op_class::SimdAes                       0      0.00%     73.91% # Class of executed instruction
system.cpu0.op_class::SimdAesMix                    0      0.00%     73.91% # Class of executed instruction
system.cpu0.op_class::SimdSha1Hash                  0      0.00%     73.91% # Class of executed instruction
system.cpu0.op_class::SimdSha1Hash2                 0      0.00%     73.91% # Class of executed instruction
system.cpu0.op_class::SimdSha256Hash                0      0.00%     73.91% # Class of executed instruction
system.cpu0.op_class::SimdSha256Hash2               0      0.00%     73.91% # Class of executed instruction
system.cpu0.op_class::SimdShaSigma2                 0      0.00%     73.91% # Class of executed instruction
system.cpu0.op_class::SimdShaSigma3                 0      0.00%     73.91% # Class of executed instruction
system.cpu0.op_class::SimdPredAlu                   0      0.00%     73.91% # Class of executed instruction
system.cpu0.op_class::MemRead                       1      4.35%     78.26% # Class of executed instruction
system.cpu0.op_class::MemWrite                      1      4.35%     82.61% # Class of executed instruction
system.cpu0.op_class::FloatMemRead                  4     17.39%    100.00% # Class of executed instruction
system.cpu0.op_class::FloatMemWrite                 0      0.00%    100.00% # Class of executed instruction
system.cpu0.op_class::IprAccess                     0      0.00%    100.00% # Class of executed instruction
system.cpu0.op_class::InstPrefetch                  0      0.00%    100.00% # Class of executed instruction
system.cpu0.op_class::total                        23                       # Class of executed instruction
system.cpu0.workload.numSyscalls                    0                       # Number of system calls
system.cpu1.Branches                                1                       # Number of branches fetched
system.cpu1.committedInsts                         15                       # Number of instructions committed
system.cpu1.committedOps                           24                       # Number of ops (including micro ops) committed
system.cpu1.idle_fraction                           0                       # Percentage of idle cycles
system.cpu1.l2bus.snoop_filter.hit_multi_requests        38019                       # Number of requests hitting in the snoop filter with multiple (>1) holders of the requested data.
system.cpu1.l2bus.snoop_filter.hit_multi_snoops            0                       # Number of snoops hitting in the snoop filter with multiple (>1) holders of the requested data.
system.cpu1.l2bus.snoop_filter.hit_single_requests      1743671                       # Number of requests hitting in the snoop filter with a single holder of the requested data.
system.cpu1.l2bus.snoop_filter.hit_single_snoops            0                       # Number of snoops hitting in the snoop filter with a single holder of the requested data.
system.cpu1.l2bus.snoop_filter.tot_requests      3488329                       # Total number of requests made to the snoop filter.
system.cpu1.l2bus.snoop_filter.tot_snoops            0                       # Total number of snoops made to the snoop filter.
system.cpu1.mmucache.mmubus.snoop_filter.hit_multi_requests            0                       # Number of requests hitting in the snoop filter with multiple (>1) holders of the requested data.
system.cpu1.mmucache.mmubus.snoop_filter.hit_multi_snoops            0                       # Number of snoops hitting in the snoop filter with multiple (>1) holders of the requested data.
system.cpu1.mmucache.mmubus.snoop_filter.hit_single_requests            0                       # Number of requests hitting in the snoop filter with a single holder of the requested data.
system.cpu1.mmucache.mmubus.snoop_filter.hit_single_snoops            0                       # Number of snoops hitting in the snoop filter with a single holder of the requested data.
system.cpu1.mmucache.mmubus.snoop_filter.tot_requests            0                       # Total number of requests made to the snoop filter.
system.cpu1.mmucache.mmubus.snoop_filter.tot_snoops            0                       # Total number of snoops made to the snoop filter.
system.cpu1.not_idle_fraction                       1                       # Percentage of non-idle cycles
system.cpu1.numCycles                              30                       # number of cpu cycles simulated
system.cpu1.numWorkItemsCompleted                   0                       # number of work items this cpu completed
system.cpu1.numWorkItemsStarted                     0                       # number of work items this cpu started
system.cpu1.num_busy_cycles                        30                       # Number of busy cycles
system.cpu1.num_cc_register_reads                   8                       # number of times the CC registers were read
system.cpu1.num_cc_register_writes                  8                       # number of times the CC registers were written
system.cpu1.num_conditional_control_insts            1                       # number of instructions that are conditional controls
system.cpu1.num_fp_alu_accesses                     1                       # Number of float alu accesses
system.cpu1.num_fp_insts                            1                       # number of float instructions
system.cpu1.num_fp_register_reads                   0                       # number of times the floating registers were read
system.cpu1.num_fp_register_writes                  1                       # number of times the floating registers were written
system.cpu1.num_func_calls                          0                       # number of times a function call or return occured
system.cpu1.num_idle_cycles                         0                       # Number of idle cycles
system.cpu1.num_int_alu_accesses                   24                       # Number of integer alu accesses
system.cpu1.num_int_insts                          24                       # number of integer instructions
system.cpu1.num_int_register_reads                 56                       # number of times the integer registers were read
system.cpu1.num_int_register_writes                17                       # number of times the integer registers were written
system.cpu1.num_load_insts                          4                       # Number of load instructions
system.cpu1.num_mem_refs                            9                       # number of memory refs
system.cpu1.num_store_insts                         5                       # Number of store instructions
system.cpu1.num_vec_alu_accesses                    0                       # Number of vector alu accesses
system.cpu1.num_vec_insts                           0                       # number of vector instructions
system.cpu1.num_vec_register_reads                  0                       # number of times the vector registers were read
system.cpu1.num_vec_register_writes                 0                       # number of times the vector registers were written
system.cpu1.op_class::No_OpClass                    0      0.00%      0.00% # Class of executed instruction
system.cpu1.op_class::IntAlu                       15     62.50%     62.50% # Class of executed instruction
system.cpu1.op_class::IntMult                       0      0.00%     62.50% # Class of executed instruction
system.cpu1.op_class::IntDiv                        0      0.00%     62.50% # Class of executed instruction
system.cpu1.op_class::FloatAdd                      0      0.00%     62.50% # Class of executed instruction
system.cpu1.op_class::FloatCmp                      0      0.00%     62.50% # Class of executed instruction
system.cpu1.op_class::FloatCvt                      0      0.00%     62.50% # Class of executed instruction
system.cpu1.op_class::FloatMult                     0      0.00%     62.50% # Class of executed instruction
system.cpu1.op_class::FloatMultAcc                  0      0.00%     62.50% # Class of executed instruction
system.cpu1.op_class::FloatDiv                      0      0.00%     62.50% # Class of executed instruction
system.cpu1.op_class::FloatMisc                     0      0.00%     62.50% # Class of executed instruction
system.cpu1.op_class::FloatSqrt                     0      0.00%     62.50% # Class of executed instruction
system.cpu1.op_class::SimdAdd                       0      0.00%     62.50% # Class of executed instruction
system.cpu1.op_class::SimdAddAcc                    0      0.00%     62.50% # Class of executed instruction
system.cpu1.op_class::SimdAlu                       0      0.00%     62.50% # Class of executed instruction
system.cpu1.op_class::SimdCmp                       0      0.00%     62.50% # Class of executed instruction
system.cpu1.op_class::SimdCvt                       0      0.00%     62.50% # Class of executed instruction
system.cpu1.op_class::SimdMisc                      0      0.00%     62.50% # Class of executed instruction
system.cpu1.op_class::SimdMult                      0      0.00%     62.50% # Class of executed instruction
system.cpu1.op_class::SimdMultAcc                   0      0.00%     62.50% # Class of executed instruction
system.cpu1.op_class::SimdShift                     0      0.00%     62.50% # Class of executed instruction
system.cpu1.op_class::SimdShiftAcc                  0      0.00%     62.50% # Class of executed instruction
system.cpu1.op_class::SimdDiv                       0      0.00%     62.50% # Class of executed instruction
system.cpu1.op_class::SimdSqrt                      0      0.00%     62.50% # Class of executed instruction
system.cpu1.op_class::SimdFloatAdd                  0      0.00%     62.50% # Class of executed instruction
system.cpu1.op_class::SimdFloatAlu                  0      0.00%     62.50% # Class of executed instruction
system.cpu1.op_class::SimdFloatCmp                  0      0.00%     62.50% # Class of executed instruction
system.cpu1.op_class::SimdFloatCvt                  0      0.00%     62.50% # Class of executed instruction
system.cpu1.op_class::SimdFloatDiv                  0      0.00%     62.50% # Class of executed instruction
system.cpu1.op_class::SimdFloatMisc                 0      0.00%     62.50% # Class of executed instruction
system.cpu1.op_class::SimdFloatMult                 0      0.00%     62.50% # Class of executed instruction
system.cpu1.op_class::SimdFloatMultAcc              0      0.00%     62.50% # Class of executed instruction
system.cpu1.op_class::SimdFloatSqrt                 0      0.00%     62.50% # Class of executed instruction
system.cpu1.op_class::SimdReduceAdd                 0      0.00%     62.50% # Class of executed instruction
system.cpu1.op_class::SimdReduceAlu                 0      0.00%     62.50% # Class of executed instruction
system.cpu1.op_class::SimdReduceCmp                 0      0.00%     62.50% # Class of executed instruction
system.cpu1.op_class::SimdFloatReduceAdd            0      0.00%     62.50% # Class of executed instruction
system.cpu1.op_class::SimdFloatReduceCmp            0      0.00%     62.50% # Class of executed instruction
system.cpu1.op_class::SimdAes                       0      0.00%     62.50% # Class of executed instruction
system.cpu1.op_class::SimdAesMix                    0      0.00%     62.50% # Class of executed instruction
system.cpu1.op_class::SimdSha1Hash                  0      0.00%     62.50% # Class of executed instruction
system.cpu1.op_class::SimdSha1Hash2                 0      0.00%     62.50% # Class of executed instruction
system.cpu1.op_class::SimdSha256Hash                0      0.00%     62.50% # Class of executed instruction
system.cpu1.op_class::SimdSha256Hash2               0      0.00%     62.50% # Class of executed instruction
system.cpu1.op_class::SimdShaSigma2                 0      0.00%     62.50% # Class of executed instruction
system.cpu1.op_class::SimdShaSigma3                 0      0.00%     62.50% # Class of executed instruction
system.cpu1.op_class::SimdPredAlu                   0      0.00%     62.50% # Class of executed instruction
system.cpu1.op_class::MemRead                       3     12.50%     75.00% # Class of executed instruction
system.cpu1.op_class::MemWrite                      5     20.83%     95.83% # Class of executed instruction
system.cpu1.op_class::FloatMemRead                  1      4.17%    100.00% # Class of executed instruction
system.cpu1.op_class::FloatMemWrite                 0      0.00%    100.00% # Class of executed instruction
system.cpu1.op_class::IprAccess                     0      0.00%    100.00% # Class of executed instruction
system.cpu1.op_class::InstPrefetch                  0      0.00%    100.00% # Class of executed instruction
system.cpu1.op_class::total                        24                       # Class of executed instruction
system.cpu1.workload.numSyscalls                    2                       # Number of system calls
system.cpu2.Branches                                2                       # Number of branches fetched
system.cpu2.committedInsts                         16                       # Number of instructions committed
system.cpu2.committedOps                           24                       # Number of ops (including micro ops) committed
system.cpu2.idle_fraction                           0                       # Percentage of idle cycles
system.cpu2.l2bus.snoop_filter.hit_multi_requests           92                       # Number of requests hitting in the snoop filter with multiple (>1) holders of the requested data.
system.cpu2.l2bus.snoop_filter.hit_multi_snoops            0                       # Number of snoops hitting in the snoop filter with multiple (>1) holders of the requested data.
system.cpu2.l2bus.snoop_filter.hit_single_requests      2382366                       # Number of requests hitting in the snoop filter with a single holder of the requested data.
system.cpu2.l2bus.snoop_filter.hit_single_snoops          311                       # Number of snoops hitting in the snoop filter with a single holder of the requested data.
system.cpu2.l2bus.snoop_filter.tot_requests      4749830                       # Total number of requests made to the snoop filter.
system.cpu2.l2bus.snoop_filter.tot_snoops          311                       # Total number of snoops made to the snoop filter.
system.cpu2.mmucache.mmubus.snoop_filter.hit_multi_requests            0                       # Number of requests hitting in the snoop filter with multiple (>1) holders of the requested data.
system.cpu2.mmucache.mmubus.snoop_filter.hit_multi_snoops            0                       # Number of snoops hitting in the snoop filter with multiple (>1) holders of the requested data.
system.cpu2.mmucache.mmubus.snoop_filter.hit_single_requests            0                       # Number of requests hitting in the snoop filter with a single holder of the requested data.
system.cpu2.mmucache.mmubus.snoop_filter.hit_single_snoops            0                       # Number of snoops hitting in the snoop filter with a single holder of the requested data.
system.cpu2.mmucache.mmubus.snoop_filter.tot_requests            0                       # Total number of requests made to the snoop filter.
system.cpu2.mmucache.mmubus.snoop_filter.tot_snoops            0                       # Total number of snoops made to the snoop filter.
system.cpu2.not_idle_fraction                       1                       # Percentage of non-idle cycles
system.cpu2.numCycles                              30                       # number of cpu cycles simulated
system.cpu2.numWorkItemsCompleted                   0                       # number of work items this cpu completed
system.cpu2.numWorkItemsStarted                     0                       # number of work items this cpu started
system.cpu2.num_busy_cycles                        30                       # Number of busy cycles
system.cpu2.num_cc_register_reads                  12                       # number of times the CC registers were read
system.cpu2.num_cc_register_writes                 12                       # number of times the CC registers were written
system.cpu2.num_conditional_control_insts            2                       # number of instructions that are conditional controls
system.cpu2.num_fp_alu_accesses                     0                       # Number of float alu accesses
system.cpu2.num_fp_insts                            0                       # number of float instructions
system.cpu2.num_fp_register_reads                   0                       # number of times the floating registers were read
system.cpu2.num_fp_register_writes                  0                       # number of times the floating registers were written
system.cpu2.num_func_calls                          0                       # number of times a function call or return occured
system.cpu2.num_idle_cycles                         0                       # Number of idle cycles
system.cpu2.num_int_alu_accesses                   24                       # Number of integer alu accesses
system.cpu2.num_int_insts                          24                       # number of integer instructions
system.cpu2.num_int_register_reads                 56                       # number of times the integer registers were read
system.cpu2.num_int_register_writes                19                       # number of times the integer registers were written
system.cpu2.num_load_insts                          7                       # Number of load instructions
system.cpu2.num_mem_refs                           10                       # number of memory refs
system.cpu2.num_store_insts                         3                       # Number of store instructions
system.cpu2.num_vec_alu_accesses                    0                       # Number of vector alu accesses
system.cpu2.num_vec_insts                           0                       # number of vector instructions
system.cpu2.num_vec_register_reads                  0                       # number of times the vector registers were read
system.cpu2.num_vec_register_writes                 0                       # number of times the vector registers were written
system.cpu2.op_class::No_OpClass                    0      0.00%      0.00% # Class of executed instruction
system.cpu2.op_class::IntAlu                       14     58.33%     58.33% # Class of executed instruction
system.cpu2.op_class::IntMult                       0      0.00%     58.33% # Class of executed instruction
system.cpu2.op_class::IntDiv                        0      0.00%     58.33% # Class of executed instruction
system.cpu2.op_class::FloatAdd                      0      0.00%     58.33% # Class of executed instruction
system.cpu2.op_class::FloatCmp                      0      0.00%     58.33% # Class of executed instruction
system.cpu2.op_class::FloatCvt                      0      0.00%     58.33% # Class of executed instruction
system.cpu2.op_class::FloatMult                     0      0.00%     58.33% # Class of executed instruction
system.cpu2.op_class::FloatMultAcc                  0      0.00%     58.33% # Class of executed instruction
system.cpu2.op_class::FloatDiv                      0      0.00%     58.33% # Class of executed instruction
system.cpu2.op_class::FloatMisc                     0      0.00%     58.33% # Class of executed instruction
system.cpu2.op_class::FloatSqrt                     0      0.00%     58.33% # Class of executed instruction
system.cpu2.op_class::SimdAdd                       0      0.00%     58.33% # Class of executed instruction
system.cpu2.op_class::SimdAddAcc                    0      0.00%     58.33% # Class of executed instruction
system.cpu2.op_class::SimdAlu                       0      0.00%     58.33% # Class of executed instruction
system.cpu2.op_class::SimdCmp                       0      0.00%     58.33% # Class of executed instruction
system.cpu2.op_class::SimdCvt                       0      0.00%     58.33% # Class of executed instruction
system.cpu2.op_class::SimdMisc                      0      0.00%     58.33% # Class of executed instruction
system.cpu2.op_class::SimdMult                      0      0.00%     58.33% # Class of executed instruction
system.cpu2.op_class::SimdMultAcc                   0      0.00%     58.33% # Class of executed instruction
system.cpu2.op_class::SimdShift                     0      0.00%     58.33% # Class of executed instruction
system.cpu2.op_class::SimdShiftAcc                  0      0.00%     58.33% # Class of executed instruction
system.cpu2.op_class::SimdDiv                       0      0.00%     58.33% # Class of executed instruction
system.cpu2.op_class::SimdSqrt                      0      0.00%     58.33% # Class of executed instruction
system.cpu2.op_class::SimdFloatAdd                  0      0.00%     58.33% # Class of executed instruction
system.cpu2.op_class::SimdFloatAlu                  0      0.00%     58.33% # Class of executed instruction
system.cpu2.op_class::SimdFloatCmp                  0      0.00%     58.33% # Class of executed instruction
system.cpu2.op_class::SimdFloatCvt                  0      0.00%     58.33% # Class of executed instruction
system.cpu2.op_class::SimdFloatDiv                  0      0.00%     58.33% # Class of executed instruction
system.cpu2.op_class::SimdFloatMisc                 0      0.00%     58.33% # Class of executed instruction
system.cpu2.op_class::SimdFloatMult                 0      0.00%     58.33% # Class of executed instruction
system.cpu2.op_class::SimdFloatMultAcc              0      0.00%     58.33% # Class of executed instruction
system.cpu2.op_class::SimdFloatSqrt                 0      0.00%     58.33% # Class of executed instruction
system.cpu2.op_class::SimdReduceAdd                 0      0.00%     58.33% # Class of executed instruction
system.cpu2.op_class::SimdReduceAlu                 0      0.00%     58.33% # Class of executed instruction
system.cpu2.op_class::SimdReduceCmp                 0      0.00%     58.33% # Class of executed instruction
system.cpu2.op_class::SimdFloatReduceAdd            0      0.00%     58.33% # Class of executed instruction
system.cpu2.op_class::SimdFloatReduceCmp            0      0.00%     58.33% # Class of executed instruction
system.cpu2.op_class::SimdAes                       0      0.00%     58.33% # Class of executed instruction
system.cpu2.op_class::SimdAesMix                    0      0.00%     58.33% # Class of executed instruction
system.cpu2.op_class::SimdSha1Hash                  0      0.00%     58.33% # Class of executed instruction
system.cpu2.op_class::SimdSha1Hash2                 0      0.00%     58.33% # Class of executed instruction
system.cpu2.op_class::SimdSha256Hash                0      0.00%     58.33% # Class of executed instruction
system.cpu2.op_class::SimdSha256Hash2               0      0.00%     58.33% # Class of executed instruction
system.cpu2.op_class::SimdShaSigma2                 0      0.00%     58.33% # Class of executed instruction
system.cpu2.op_class::SimdShaSigma3                 0      0.00%     58.33% # Class of executed instruction
system.cpu2.op_class::SimdPredAlu                   0      0.00%     58.33% # Class of executed instruction
system.cpu2.op_class::MemRead                       7     29.17%     87.50% # Class of executed instruction
system.cpu2.op_class::MemWrite                      3     12.50%    100.00% # Class of executed instruction
system.cpu2.op_class::FloatMemRead                  0      0.00%    100.00% # Class of executed instruction
system.cpu2.op_class::FloatMemWrite                 0      0.00%    100.00% # Class of executed instruction
system.cpu2.op_class::IprAccess                     0      0.00%    100.00% # Class of executed instruction
system.cpu2.op_class::InstPrefetch                  0      0.00%    100.00% # Class of executed instruction
system.cpu2.op_class::total                        24                       # Class of executed instruction
system.cpu2.workload.numSyscalls                    0                       # Number of system calls
system.cpu3.Branches                                1                       # Number of branches fetched
system.cpu3.committedInsts                         13                       # Number of instructions committed
system.cpu3.committedOps                           20                       # Number of ops (including micro ops) committed
system.cpu3.idle_fraction                           0                       # Percentage of idle cycles
system.cpu3.l2bus.snoop_filter.hit_multi_requests            0                       # Number of requests hitting in the snoop filter with multiple (>1) holders of the requested data.
system.cpu3.l2bus.snoop_filter.hit_multi_snoops            0                       # Number of snoops hitting in the snoop filter with multiple (>1) holders of the requested data.
system.cpu3.l2bus.snoop_filter.hit_single_requests      1944447                       # Number of requests hitting in the snoop filter with a single holder of the requested data.
system.cpu3.l2bus.snoop_filter.hit_single_snoops          284                       # Number of snoops hitting in the snoop filter with a single holder of the requested data.
system.cpu3.l2bus.snoop_filter.tot_requests      3884583                       # Total number of requests made to the snoop filter.
system.cpu3.l2bus.snoop_filter.tot_snoops          284                       # Total number of snoops made to the snoop filter.
system.cpu3.mmucache.mmubus.snoop_filter.hit_multi_requests            0                       # Number of requests hitting in the snoop filter with multiple (>1) holders of the requested data.
system.cpu3.mmucache.mmubus.snoop_filter.hit_multi_snoops            0                       # Number of snoops hitting in the snoop filter with multiple (>1) holders of the requested data.
system.cpu3.mmucache.mmubus.snoop_filter.hit_single_requests            0                       # Number of requests hitting in the snoop filter with a single holder of the requested data.
system.cpu3.mmucache.mmubus.snoop_filter.hit_single_snoops            0                       # Number of snoops hitting in the snoop filter with a single holder of the requested data.
system.cpu3.mmucache.mmubus.snoop_filter.tot_requests            0                       # Total number of requests made to the snoop filter.
system.cpu3.mmucache.mmubus.snoop_filter.tot_snoops            0                       # Total number of snoops made to the snoop filter.
system.cpu3.not_idle_fraction                       1                       # Percentage of non-idle cycles
system.cpu3.numCycles                              30                       # number of cpu cycles simulated
system.cpu3.numWorkItemsCompleted                   0                       # number of work items this cpu completed
system.cpu3.numWorkItemsStarted                     0                       # number of work items this cpu started
system.cpu3.num_busy_cycles                        30                       # Number of busy cycles
system.cpu3.num_cc_register_reads                   7                       # number of times the CC registers were read
system.cpu3.num_cc_register_writes                  2                       # number of times the CC registers were written
system.cpu3.num_conditional_control_insts            1                       # number of instructions that are conditional controls
system.cpu3.num_fp_alu_accesses                    13                       # Number of float alu accesses
system.cpu3.num_fp_insts                           13                       # number of float instructions
system.cpu3.num_fp_register_reads                  19                       # number of times the floating registers were read
system.cpu3.num_fp_register_writes                 12                       # number of times the floating registers were written
system.cpu3.num_func_calls                          0                       # number of times a function call or return occured
system.cpu3.num_idle_cycles                         0                       # Number of idle cycles
system.cpu3.num_int_alu_accesses                   13                       # Number of integer alu accesses
system.cpu3.num_int_insts                          13                       # number of integer instructions
system.cpu3.num_int_register_reads                 28                       # number of times the integer registers were read
system.cpu3.num_int_register_writes                 6                       # number of times the integer registers were written
system.cpu3.num_load_insts                          7                       # Number of load instructions
system.cpu3.num_mem_refs                            7                       # number of memory refs
system.cpu3.num_store_insts                         0                       # Number of store instructions
system.cpu3.num_vec_alu_accesses                    0                       # Number of vector alu accesses
system.cpu3.num_vec_insts                           0                       # number of vector instructions
system.cpu3.num_vec_register_reads                  0                       # number of times the vector registers were read
system.cpu3.num_vec_register_writes                 0                       # number of times the vector registers were written
system.cpu3.op_class::No_OpClass                    0      0.00%      0.00% # Class of executed instruction
system.cpu3.op_class::IntAlu                        7     35.00%     35.00% # Class of executed instruction
system.cpu3.op_class::IntMult                       0      0.00%     35.00% # Class of executed instruction
system.cpu3.op_class::IntDiv                        0      0.00%     35.00% # Class of executed instruction
system.cpu3.op_class::FloatAdd                      0      0.00%     35.00% # Class of executed instruction
system.cpu3.op_class::FloatCmp                      0      0.00%     35.00% # Class of executed instruction
system.cpu3.op_class::FloatCvt                      0      0.00%     35.00% # Class of executed instruction
system.cpu3.op_class::FloatMult                     0      0.00%     35.00% # Class of executed instruction
system.cpu3.op_class::FloatMultAcc                  0      0.00%     35.00% # Class of executed instruction
system.cpu3.op_class::FloatDiv                      0      0.00%     35.00% # Class of executed instruction
system.cpu3.op_class::FloatMisc                     0      0.00%     35.00% # Class of executed instruction
system.cpu3.op_class::FloatSqrt                     0      0.00%     35.00% # Class of executed instruction
system.cpu3.op_class::SimdAdd                       0      0.00%     35.00% # Class of executed instruction
system.cpu3.op_class::SimdAddAcc                    0      0.00%     35.00% # Class of executed instruction
system.cpu3.op_class::SimdAlu                       0      0.00%     35.00% # Class of executed instruction
system.cpu3.op_class::SimdCmp                       0      0.00%     35.00% # Class of executed instruction
system.cpu3.op_class::SimdCvt                       0      0.00%     35.00% # Class of executed instruction
system.cpu3.op_class::SimdMisc                      0      0.00%     35.00% # Class of executed instruction
system.cpu3.op_class::SimdMult                      0      0.00%     35.00% # Class of executed instruction
system.cpu3.op_class::SimdMultAcc                   0      0.00%     35.00% # Class of executed instruction
system.cpu3.op_class::SimdShift                     0      0.00%     35.00% # Class of executed instruction
system.cpu3.op_class::SimdShiftAcc                  0      0.00%     35.00% # Class of executed instruction
system.cpu3.op_class::SimdDiv                       0      0.00%     35.00% # Class of executed instruction
system.cpu3.op_class::SimdSqrt                      0      0.00%     35.00% # Class of executed instruction
system.cpu3.op_class::SimdFloatAdd                  2     10.00%     45.00% # Class of executed instruction
system.cpu3.op_class::SimdFloatAlu                  0      0.00%     45.00% # Class of executed instruction
system.cpu3.op_class::SimdFloatCmp                  0      0.00%     45.00% # Class of executed instruction
system.cpu3.op_class::SimdFloatCvt                  1      5.00%     50.00% # Class of executed instruction
system.cpu3.op_class::SimdFloatDiv                  1      5.00%     55.00% # Class of executed instruction
system.cpu3.op_class::SimdFloatMisc                 0      0.00%     55.00% # Class of executed instruction
system.cpu3.op_class::SimdFloatMult                 2     10.00%     65.00% # Class of executed instruction
system.cpu3.op_class::SimdFloatMultAcc              0      0.00%     65.00% # Class of executed instruction
system.cpu3.op_class::SimdFloatSqrt                 0      0.00%     65.00% # Class of executed instruction
system.cpu3.op_class::SimdReduceAdd                 0      0.00%     65.00% # Class of executed instruction
system.cpu3.op_class::SimdReduceAlu                 0      0.00%     65.00% # Class of executed instruction
system.cpu3.op_class::SimdReduceCmp                 0      0.00%     65.00% # Class of executed instruction
system.cpu3.op_class::SimdFloatReduceAdd            0      0.00%     65.00% # Class of executed instruction
system.cpu3.op_class::SimdFloatReduceCmp            0      0.00%     65.00% # Class of executed instruction
system.cpu3.op_class::SimdAes                       0      0.00%     65.00% # Class of executed instruction
system.cpu3.op_class::SimdAesMix                    0      0.00%     65.00% # Class of executed instruction
system.cpu3.op_class::SimdSha1Hash                  0      0.00%     65.00% # Class of executed instruction
system.cpu3.op_class::SimdSha1Hash2                 0      0.00%     65.00% # Class of executed instruction
system.cpu3.op_class::SimdSha256Hash                0      0.00%     65.00% # Class of executed instruction
system.cpu3.op_class::SimdSha256Hash2               0      0.00%     65.00% # Class of executed instruction
system.cpu3.op_class::SimdShaSigma2                 0      0.00%     65.00% # Class of executed instruction
system.cpu3.op_class::SimdShaSigma3                 0      0.00%     65.00% # Class of executed instruction
system.cpu3.op_class::SimdPredAlu                   0      0.00%     65.00% # Class of executed instruction
system.cpu3.op_class::MemRead                       1      5.00%     70.00% # Class of executed instruction
system.cpu3.op_class::MemWrite                      0      0.00%     70.00% # Class of executed instruction
system.cpu3.op_class::FloatMemRead                  6     30.00%    100.00% # Class of executed instruction
system.cpu3.op_class::FloatMemWrite                 0      0.00%    100.00% # Class of executed instruction
system.cpu3.op_class::IprAccess                     0      0.00%    100.00% # Class of executed instruction
system.cpu3.op_class::InstPrefetch                  0      0.00%    100.00% # Class of executed instruction
system.cpu3.op_class::total                        20                       # Class of executed instruction
system.cpu3.workload.numSyscalls                    0                       # Number of system calls
system.l3bus.snoop_filter.hit_multi_requests            0                       # Number of requests hitting in the snoop filter with multiple (>1) holders of the requested data.
system.l3bus.snoop_filter.hit_multi_snoops            0                       # Number of snoops hitting in the snoop filter with multiple (>1) holders of the requested data.
system.l3bus.snoop_filter.hit_single_requests      1356210                       # Number of requests hitting in the snoop filter with a single holder of the requested data.
system.l3bus.snoop_filter.hit_single_snoops            0                       # Number of snoops hitting in the snoop filter with a single holder of the requested data.
system.l3bus.snoop_filter.tot_requests        2727882                       # Total number of requests made to the snoop filter.
system.l3bus.snoop_filter.tot_snoops                0                       # Total number of snoops made to the snoop filter.
system.membus.snoop_filter.hit_multi_requests            0                       # Number of requests hitting in the snoop filter with multiple (>1) holders of the requested data.
system.membus.snoop_filter.hit_multi_snoops            0                       # Number of snoops hitting in the snoop filter with multiple (>1) holders of the requested data.
system.membus.snoop_filter.hit_single_requests       553443                       # Number of requests hitting in the snoop filter with a single holder of the requested data.
system.membus.snoop_filter.hit_single_snoops            0                       # Number of snoops hitting in the snoop filter with a single holder of the requested data.
system.membus.snoop_filter.tot_requests       1186206                       # Total number of requests made to the snoop filter.
system.membus.snoop_filter.tot_snoops               0                       # Total number of snoops made to the snoop filter.
system.switch_cpus0.cc_regfile_reads         50565228                       # number of cc regfile reads
system.switch_cpus0.cc_regfile_writes        45630915                       # number of cc regfile writes
system.switch_cpus0.committedInsts          126856594                       # Number of Instructions Simulated
system.switch_cpus0.committedOps            229883727                       # Number of Ops (including micro ops) Simulated
system.switch_cpus0.cpi                      0.788745                       # CPI: Cycles Per Instruction
system.switch_cpus0.cpi_total                0.788745                       # CPI: Total CPI of All Threads
system.switch_cpus0.fp_regfile_reads        170300850                       # number of floating regfile reads
system.switch_cpus0.fp_regfile_writes       105830362                       # number of floating regfile writes
system.switch_cpus0.idleCycles                 408918                       # Total number of cycles that the CPU has spent unscheduled due to idling
system.switch_cpus0.iew.branchMispredicts       110863                       # Number of branch mispredicts detected at execute
system.switch_cpus0.iew.exec_branches        12884743                       # Number of branches executed
system.switch_cpus0.iew.exec_nop                    0                       # number of nop insts executed
system.switch_cpus0.iew.exec_rate            2.339836                       # Inst execution rate
system.switch_cpus0.iew.exec_refs            46926564                       # number of memory reference insts executed
system.switch_cpus0.iew.exec_stores          10809888                       # Number of stores executed
system.switch_cpus0.iew.exec_swp                    0                       # number of swp insts executed
system.switch_cpus0.iew.iewBlockCycles        2040247                       # Number of cycles IEW is blocking
system.switch_cpus0.iew.iewDispLoadInsts     35054685                       # Number of dispatched load instructions
system.switch_cpus0.iew.iewDispNonSpecInsts          100                       # Number of dispatched non-speculative instructions
system.switch_cpus0.iew.iewDispSquashedInsts         6594                       # Number of squashed instructions skipped by dispatch
system.switch_cpus0.iew.iewDispStoreInsts     10988462                       # Number of dispatched store instructions
system.switch_cpus0.iew.iewDispatchedInsts    234598514                       # Number of instructions dispatched to IQ
system.switch_cpus0.iew.iewExecLoadInsts     36116676                       # Number of load instructions executed
system.switch_cpus0.iew.iewExecSquashedInsts       187597                       # Number of squashed instructions skipped in execute
system.switch_cpus0.iew.iewExecutedInsts    234118186                       # Number of executed instructions
system.switch_cpus0.iew.iewIQFullEvents          5231                       # Number of times the IQ has become full, causing a stall
system.switch_cpus0.iew.iewIdleCycles               0                       # Number of cycles IEW is idle
system.switch_cpus0.iew.iewLSQFullEvents     12205811                       # Number of times the LSQ has become full, causing a stall
system.switch_cpus0.iew.iewSquashCycles        112204                       # Number of cycles IEW is squashing
system.switch_cpus0.iew.iewUnblockCycles     12271383                       # Number of cycles IEW is unblocking
system.switch_cpus0.iew.memOrderViolationEvents         2735                       # Number of memory order violations
system.switch_cpus0.iew.predictedNotTakenIncorrect        73015                       # Number of branches that were predicted not taken incorrectly
system.switch_cpus0.iew.predictedTakenIncorrect        37848                       # Number of branches that were predicted taken incorrectly
system.switch_cpus0.iew.wb_consumers        279923627                       # num instructions consuming a value
system.switch_cpus0.iew.wb_count            232736850                       # cumulative count of insts written-back
system.switch_cpus0.iew.wb_fanout            0.600560                       # average fanout of values written-back
system.switch_cpus0.iew.wb_producers        168111043                       # num instructions producing a value
system.switch_cpus0.iew.wb_rate              2.326030                       # insts written-back per cycle
system.switch_cpus0.iew.wb_sent             232841123                       # cumulative count of insts sent to commit
system.switch_cpus0.int_regfile_reads       214996260                       # number of integer regfile reads
system.switch_cpus0.int_regfile_writes      102677967                       # number of integer regfile writes
system.switch_cpus0.ipc                      1.267837                       # IPC: Instructions Per Cycle
system.switch_cpus0.ipc_total                1.267837                       # IPC: Total IPC of All Threads
system.switch_cpus0.iq.FU_type_0::No_OpClass       116160      0.05%      0.05% # Type of FU issued
system.switch_cpus0.iq.FU_type_0::IntAlu    113493388     48.44%     48.49% # Type of FU issued
system.switch_cpus0.iq.FU_type_0::IntMult        25911      0.01%     48.50% # Type of FU issued
system.switch_cpus0.iq.FU_type_0::IntDiv            0      0.00%     48.50% # Type of FU issued
system.switch_cpus0.iq.FU_type_0::FloatAdd     18092257      7.72%     56.22% # Type of FU issued
system.switch_cpus0.iq.FU_type_0::FloatCmp            0      0.00%     56.22% # Type of FU issued
system.switch_cpus0.iq.FU_type_0::FloatCvt            0      0.00%     56.22% # Type of FU issued
system.switch_cpus0.iq.FU_type_0::FloatMult            0      0.00%     56.22% # Type of FU issued
system.switch_cpus0.iq.FU_type_0::FloatMultAcc            0      0.00%     56.22% # Type of FU issued
system.switch_cpus0.iq.FU_type_0::FloatDiv            0      0.00%     56.22% # Type of FU issued
system.switch_cpus0.iq.FU_type_0::FloatMisc            0      0.00%     56.22% # Type of FU issued
system.switch_cpus0.iq.FU_type_0::FloatSqrt            0      0.00%     56.22% # Type of FU issued
system.switch_cpus0.iq.FU_type_0::SimdAdd            0      0.00%     56.22% # Type of FU issued
system.switch_cpus0.iq.FU_type_0::SimdAddAcc            0      0.00%     56.22% # Type of FU issued
system.switch_cpus0.iq.FU_type_0::SimdAlu      7356387      3.14%     59.36% # Type of FU issued
system.switch_cpus0.iq.FU_type_0::SimdCmp            0      0.00%     59.36% # Type of FU issued
system.switch_cpus0.iq.FU_type_0::SimdCvt            0      0.00%     59.36% # Type of FU issued
system.switch_cpus0.iq.FU_type_0::SimdMisc      6217755      2.65%     62.01% # Type of FU issued
system.switch_cpus0.iq.FU_type_0::SimdMult            0      0.00%     62.01% # Type of FU issued
system.switch_cpus0.iq.FU_type_0::SimdMultAcc            0      0.00%     62.01% # Type of FU issued
system.switch_cpus0.iq.FU_type_0::SimdShift            0      0.00%     62.01% # Type of FU issued
system.switch_cpus0.iq.FU_type_0::SimdShiftAcc            0      0.00%     62.01% # Type of FU issued
system.switch_cpus0.iq.FU_type_0::SimdDiv            0      0.00%     62.01% # Type of FU issued
system.switch_cpus0.iq.FU_type_0::SimdSqrt            0      0.00%     62.01% # Type of FU issued
system.switch_cpus0.iq.FU_type_0::SimdFloatAdd     18225309      7.78%     69.79% # Type of FU issued
system.switch_cpus0.iq.FU_type_0::SimdFloatAlu            0      0.00%     69.79% # Type of FU issued
system.switch_cpus0.iq.FU_type_0::SimdFloatCmp        50784      0.02%     69.81% # Type of FU issued
system.switch_cpus0.iq.FU_type_0::SimdFloatCvt      4749428      2.03%     71.84% # Type of FU issued
system.switch_cpus0.iq.FU_type_0::SimdFloatDiv      1226507      0.52%     72.36% # Type of FU issued
system.switch_cpus0.iq.FU_type_0::SimdFloatMisc            0      0.00%     72.36% # Type of FU issued
system.switch_cpus0.iq.FU_type_0::SimdFloatMult     17748054      7.57%     79.94% # Type of FU issued
system.switch_cpus0.iq.FU_type_0::SimdFloatMultAcc            0      0.00%     79.94% # Type of FU issued
system.switch_cpus0.iq.FU_type_0::SimdFloatSqrt         4234      0.00%     79.94% # Type of FU issued
system.switch_cpus0.iq.FU_type_0::SimdReduceAdd            0      0.00%     79.94% # Type of FU issued
system.switch_cpus0.iq.FU_type_0::SimdReduceAlu            0      0.00%     79.94% # Type of FU issued
system.switch_cpus0.iq.FU_type_0::SimdReduceCmp            0      0.00%     79.94% # Type of FU issued
system.switch_cpus0.iq.FU_type_0::SimdFloatReduceAdd            0      0.00%     79.94% # Type of FU issued
system.switch_cpus0.iq.FU_type_0::SimdFloatReduceCmp            0      0.00%     79.94% # Type of FU issued
system.switch_cpus0.iq.FU_type_0::SimdAes            0      0.00%     79.94% # Type of FU issued
system.switch_cpus0.iq.FU_type_0::SimdAesMix            0      0.00%     79.94% # Type of FU issued
system.switch_cpus0.iq.FU_type_0::SimdSha1Hash            0      0.00%     79.94% # Type of FU issued
system.switch_cpus0.iq.FU_type_0::SimdSha1Hash2            0      0.00%     79.94% # Type of FU issued
system.switch_cpus0.iq.FU_type_0::SimdSha256Hash            0      0.00%     79.94% # Type of FU issued
system.switch_cpus0.iq.FU_type_0::SimdSha256Hash2            0      0.00%     79.94% # Type of FU issued
system.switch_cpus0.iq.FU_type_0::SimdShaSigma2            0      0.00%     79.94% # Type of FU issued
system.switch_cpus0.iq.FU_type_0::SimdShaSigma3            0      0.00%     79.94% # Type of FU issued
system.switch_cpus0.iq.FU_type_0::SimdPredAlu            0      0.00%     79.94% # Type of FU issued
system.switch_cpus0.iq.FU_type_0::MemRead      9449928      4.03%     83.97% # Type of FU issued
system.switch_cpus0.iq.FU_type_0::MemWrite      7334765      3.13%     87.10% # Type of FU issued
system.switch_cpus0.iq.FU_type_0::FloatMemRead     26720095     11.40%     98.51% # Type of FU issued
system.switch_cpus0.iq.FU_type_0::FloatMemWrite      3494821      1.49%    100.00% # Type of FU issued
system.switch_cpus0.iq.FU_type_0::IprAccess            0      0.00%    100.00% # Type of FU issued
system.switch_cpus0.iq.FU_type_0::InstPrefetch            0      0.00%    100.00% # Type of FU issued
system.switch_cpus0.iq.FU_type_0::total     234305783                       # Type of FU issued
system.switch_cpus0.iq.fp_alu_accesses      116636786                       # Number of floating point alu accesses
system.switch_cpus0.iq.fp_inst_queue_reads    232828458                       # Number of floating instruction queue reads
system.switch_cpus0.iq.fp_inst_queue_wakeup_accesses    114831913                       # Number of floating instruction queue wakeup accesses
system.switch_cpus0.iq.fp_inst_queue_writes    118119422                       # Number of floating instruction queue writes
system.switch_cpus0.iq.fu_busy_cnt            2070611                       # FU busy when requested
system.switch_cpus0.iq.fu_busy_rate          0.008837                       # FU busy rate (busy events/executed inst)
system.switch_cpus0.iq.fu_full::No_OpClass            0      0.00%      0.00% # attempts to use FU when none available
system.switch_cpus0.iq.fu_full::IntAlu        1163037     56.17%     56.17% # attempts to use FU when none available
system.switch_cpus0.iq.fu_full::IntMult             0      0.00%     56.17% # attempts to use FU when none available
system.switch_cpus0.iq.fu_full::IntDiv              0      0.00%     56.17% # attempts to use FU when none available
system.switch_cpus0.iq.fu_full::FloatAdd        20685      1.00%     57.17% # attempts to use FU when none available
system.switch_cpus0.iq.fu_full::FloatCmp            0      0.00%     57.17% # attempts to use FU when none available
system.switch_cpus0.iq.fu_full::FloatCvt            0      0.00%     57.17% # attempts to use FU when none available
system.switch_cpus0.iq.fu_full::FloatMult            0      0.00%     57.17% # attempts to use FU when none available
system.switch_cpus0.iq.fu_full::FloatMultAcc            0      0.00%     57.17% # attempts to use FU when none available
system.switch_cpus0.iq.fu_full::FloatDiv            0      0.00%     57.17% # attempts to use FU when none available
system.switch_cpus0.iq.fu_full::FloatMisc            0      0.00%     57.17% # attempts to use FU when none available
system.switch_cpus0.iq.fu_full::FloatSqrt            0      0.00%     57.17% # attempts to use FU when none available
system.switch_cpus0.iq.fu_full::SimdAdd             0      0.00%     57.17% # attempts to use FU when none available
system.switch_cpus0.iq.fu_full::SimdAddAcc            0      0.00%     57.17% # attempts to use FU when none available
system.switch_cpus0.iq.fu_full::SimdAlu        225949     10.91%     68.08% # attempts to use FU when none available
system.switch_cpus0.iq.fu_full::SimdCmp             0      0.00%     68.08% # attempts to use FU when none available
system.switch_cpus0.iq.fu_full::SimdCvt             0      0.00%     68.08% # attempts to use FU when none available
system.switch_cpus0.iq.fu_full::SimdMisc        21651      1.05%     69.13% # attempts to use FU when none available
system.switch_cpus0.iq.fu_full::SimdMult            0      0.00%     69.13% # attempts to use FU when none available
system.switch_cpus0.iq.fu_full::SimdMultAcc            0      0.00%     69.13% # attempts to use FU when none available
system.switch_cpus0.iq.fu_full::SimdShift            0      0.00%     69.13% # attempts to use FU when none available
system.switch_cpus0.iq.fu_full::SimdShiftAcc            0      0.00%     69.13% # attempts to use FU when none available
system.switch_cpus0.iq.fu_full::SimdDiv             0      0.00%     69.13% # attempts to use FU when none available
system.switch_cpus0.iq.fu_full::SimdSqrt            0      0.00%     69.13% # attempts to use FU when none available
system.switch_cpus0.iq.fu_full::SimdFloatAdd        20655      1.00%     70.12% # attempts to use FU when none available
system.switch_cpus0.iq.fu_full::SimdFloatAlu            0      0.00%     70.12% # attempts to use FU when none available
system.switch_cpus0.iq.fu_full::SimdFloatCmp            0      0.00%     70.12% # attempts to use FU when none available
system.switch_cpus0.iq.fu_full::SimdFloatCvt        25500      1.23%     71.35% # attempts to use FU when none available
system.switch_cpus0.iq.fu_full::SimdFloatDiv         1604      0.08%     71.43% # attempts to use FU when none available
system.switch_cpus0.iq.fu_full::SimdFloatMisc            0      0.00%     71.43% # attempts to use FU when none available
system.switch_cpus0.iq.fu_full::SimdFloatMult        22440      1.08%     72.52% # attempts to use FU when none available
system.switch_cpus0.iq.fu_full::SimdFloatMultAcc            0      0.00%     72.52% # attempts to use FU when none available
system.switch_cpus0.iq.fu_full::SimdFloatSqrt            0      0.00%     72.52% # attempts to use FU when none available
system.switch_cpus0.iq.fu_full::SimdReduceAdd            0      0.00%     72.52% # attempts to use FU when none available
system.switch_cpus0.iq.fu_full::SimdReduceAlu            0      0.00%     72.52% # attempts to use FU when none available
system.switch_cpus0.iq.fu_full::SimdReduceCmp            0      0.00%     72.52% # attempts to use FU when none available
system.switch_cpus0.iq.fu_full::SimdFloatReduceAdd            0      0.00%     72.52% # attempts to use FU when none available
system.switch_cpus0.iq.fu_full::SimdFloatReduceCmp            0      0.00%     72.52% # attempts to use FU when none available
system.switch_cpus0.iq.fu_full::SimdAes             0      0.00%     72.52% # attempts to use FU when none available
system.switch_cpus0.iq.fu_full::SimdAesMix            0      0.00%     72.52% # attempts to use FU when none available
system.switch_cpus0.iq.fu_full::SimdSha1Hash            0      0.00%     72.52% # attempts to use FU when none available
system.switch_cpus0.iq.fu_full::SimdSha1Hash2            0      0.00%     72.52% # attempts to use FU when none available
system.switch_cpus0.iq.fu_full::SimdSha256Hash            0      0.00%     72.52% # attempts to use FU when none available
system.switch_cpus0.iq.fu_full::SimdSha256Hash2            0      0.00%     72.52% # attempts to use FU when none available
system.switch_cpus0.iq.fu_full::SimdShaSigma2            0      0.00%     72.52% # attempts to use FU when none available
system.switch_cpus0.iq.fu_full::SimdShaSigma3            0      0.00%     72.52% # attempts to use FU when none available
system.switch_cpus0.iq.fu_full::SimdPredAlu            0      0.00%     72.52% # attempts to use FU when none available
system.switch_cpus0.iq.fu_full::MemRead        317835     15.35%     87.87% # attempts to use FU when none available
system.switch_cpus0.iq.fu_full::MemWrite       148550      7.17%     95.04% # attempts to use FU when none available
system.switch_cpus0.iq.fu_full::FloatMemRead        73083      3.53%     98.57% # attempts to use FU when none available
system.switch_cpus0.iq.fu_full::FloatMemWrite        29622      1.43%    100.00% # attempts to use FU when none available
system.switch_cpus0.iq.fu_full::IprAccess            0      0.00%    100.00% # attempts to use FU when none available
system.switch_cpus0.iq.fu_full::InstPrefetch            0      0.00%    100.00% # attempts to use FU when none available
system.switch_cpus0.iq.int_alu_accesses     119623448                       # Number of integer alu accesses
system.switch_cpus0.iq.int_inst_queue_reads    337520240                       # Number of integer instruction queue reads
system.switch_cpus0.iq.int_inst_queue_wakeup_accesses    117904937                       # Number of integer instruction queue wakeup accesses
system.switch_cpus0.iq.int_inst_queue_writes    121196611                       # Number of integer instruction queue writes
system.switch_cpus0.iq.iqInstsAdded         234594887                       # Number of instructions added to the IQ (excludes non-spec)
system.switch_cpus0.iq.iqInstsIssued        234305783                       # Number of instructions issued
system.switch_cpus0.iq.iqNonSpecInstsAdded         3627                       # Number of non-speculative instructions added to the IQ
system.switch_cpus0.iq.iqSquashedInstsExamined      4714787                       # Number of squashed instructions iterated over during squash; mainly for profiling
system.switch_cpus0.iq.iqSquashedInstsIssued        17905                       # Number of squashed instructions issued
system.switch_cpus0.iq.iqSquashedNonSpecRemoved         3204                       # Number of squashed non-spec instructions that were removed
system.switch_cpus0.iq.iqSquashedOperandsExamined      5246832                       # Number of squashed operands that are examined and possibly removed from graph
system.switch_cpus0.iq.issued_per_cycle::samples     99648616                       # Number of insts issued each cycle
system.switch_cpus0.iq.issued_per_cycle::mean     2.351320                       # Number of insts issued each cycle
system.switch_cpus0.iq.issued_per_cycle::stdev     2.529038                       # Number of insts issued each cycle
system.switch_cpus0.iq.issued_per_cycle::underflows            0      0.00%      0.00% # Number of insts issued each cycle
system.switch_cpus0.iq.issued_per_cycle::0     41605669     41.75%     41.75% # Number of insts issued each cycle
system.switch_cpus0.iq.issued_per_cycle::1      6511336      6.53%     48.29% # Number of insts issued each cycle
system.switch_cpus0.iq.issued_per_cycle::2      9369663      9.40%     57.69% # Number of insts issued each cycle
system.switch_cpus0.iq.issued_per_cycle::3      9710022      9.74%     67.43% # Number of insts issued each cycle
system.switch_cpus0.iq.issued_per_cycle::4      9455634      9.49%     76.92% # Number of insts issued each cycle
system.switch_cpus0.iq.issued_per_cycle::5      8071416      8.10%     85.02% # Number of insts issued each cycle
system.switch_cpus0.iq.issued_per_cycle::6      6719635      6.74%     91.77% # Number of insts issued each cycle
system.switch_cpus0.iq.issued_per_cycle::7      4214299      4.23%     95.99% # Number of insts issued each cycle
system.switch_cpus0.iq.issued_per_cycle::8      3990942      4.01%    100.00% # Number of insts issued each cycle
system.switch_cpus0.iq.issued_per_cycle::overflows            0      0.00%    100.00% # Number of insts issued each cycle
system.switch_cpus0.iq.issued_per_cycle::min_value            0                       # Number of insts issued each cycle
system.switch_cpus0.iq.issued_per_cycle::max_value            8                       # Number of insts issued each cycle
system.switch_cpus0.iq.issued_per_cycle::total     99648616                       # Number of insts issued each cycle
system.switch_cpus0.iq.rate                  2.341711                       # Inst issue rate
system.switch_cpus0.iq.vec_alu_accesses             0                       # Number of vector alu accesses
system.switch_cpus0.iq.vec_inst_queue_reads            0                       # Number of vector instruction queue reads
system.switch_cpus0.iq.vec_inst_queue_wakeup_accesses            0                       # Number of vector instruction queue wakeup accesses
system.switch_cpus0.iq.vec_inst_queue_writes            0                       # Number of vector instruction queue writes
system.switch_cpus0.memDep0.conflictingLoads      2787605                       # Number of conflicting loads.
system.switch_cpus0.memDep0.conflictingStores       544212                       # Number of conflicting stores.
system.switch_cpus0.memDep0.insertedLoads     35054685                       # Number of loads inserted to the mem dependence unit.
system.switch_cpus0.memDep0.insertedStores     10988462                       # Number of stores inserted to the mem dependence unit.
system.switch_cpus0.misc_regfile_reads       89424069                       # number of misc regfile reads
system.switch_cpus0.misc_regfile_writes             1                       # number of misc regfile writes
system.switch_cpus0.numCycles               100057534                       # number of cpu cycles simulated
system.switch_cpus0.numWorkItemsCompleted            0                       # number of work items this cpu completed
system.switch_cpus0.numWorkItemsStarted             0                       # number of work items this cpu started
system.switch_cpus0.timesIdled                  11292                       # Number of times that the entire CPU went into an idle state and unscheduled itself
system.switch_cpus1.cc_regfile_reads        204811443                       # number of cc regfile reads
system.switch_cpus1.cc_regfile_writes       100704491                       # number of cc regfile writes
system.switch_cpus1.committedInsts          250000003                       # Number of Instructions Simulated
system.switch_cpus1.committedOps            450562993                       # Number of Ops (including micro ops) Simulated
system.switch_cpus1.cpi                      0.400230                       # CPI: Cycles Per Instruction
system.switch_cpus1.cpi_total                0.400230                       # CPI: Total CPI of All Threads
system.switch_cpus1.fp_regfile_reads        147777702                       # number of floating regfile reads
system.switch_cpus1.fp_regfile_writes        84846140                       # number of floating regfile writes
system.switch_cpus1.idleCycles                 111558                       # Total number of cycles that the CPU has spent unscheduled due to idling
system.switch_cpus1.iew.branchMispredicts      1114851                       # Number of branch mispredicts detected at execute
system.switch_cpus1.iew.exec_branches        46357171                       # Number of branches executed
system.switch_cpus1.iew.exec_nop                    0                       # number of nop insts executed
system.switch_cpus1.iew.exec_rate            4.806957                       # Inst execution rate
system.switch_cpus1.iew.exec_refs           140947583                       # number of memory reference insts executed
system.switch_cpus1.iew.exec_stores          42745845                       # Number of stores executed
system.switch_cpus1.iew.exec_swp                    0                       # number of swp insts executed
system.switch_cpus1.iew.iewBlockCycles        6434857                       # Number of cycles IEW is blocking
system.switch_cpus1.iew.iewDispLoadInsts    102949384                       # Number of dispatched load instructions
system.switch_cpus1.iew.iewDispNonSpecInsts            6                       # Number of dispatched non-speculative instructions
system.switch_cpus1.iew.iewDispSquashedInsts          391                       # Number of squashed instructions skipped by dispatch
system.switch_cpus1.iew.iewDispStoreInsts     45389611                       # Number of dispatched store instructions
system.switch_cpus1.iew.iewDispatchedInsts    503506597                       # Number of instructions dispatched to IQ
system.switch_cpus1.iew.iewExecLoadInsts     98201738                       # Number of load instructions executed
system.switch_cpus1.iew.iewExecSquashedInsts      3007936                       # Number of squashed instructions skipped in execute
system.switch_cpus1.iew.iewExecutedInsts    480972308                       # Number of executed instructions
system.switch_cpus1.iew.iewIQFullEvents          9637                       # Number of times the IQ has become full, causing a stall
system.switch_cpus1.iew.iewIdleCycles               0                       # Number of cycles IEW is idle
system.switch_cpus1.iew.iewLSQFullEvents       195807                       # Number of times the LSQ has become full, causing a stall
system.switch_cpus1.iew.iewSquashCycles        996971                       # Number of cycles IEW is squashing
system.switch_cpus1.iew.iewUnblockCycles       210020                       # Number of cycles IEW is unblocking
system.switch_cpus1.iew.memOrderViolationEvents        18563                       # Number of memory order violations
system.switch_cpus1.iew.predictedNotTakenIncorrect       728251                       # Number of branches that were predicted not taken incorrectly
system.switch_cpus1.iew.predictedTakenIncorrect       386600                       # Number of branches that were predicted taken incorrectly
system.switch_cpus1.iew.wb_consumers        629450280                       # num instructions consuming a value
system.switch_cpus1.iew.wb_count            479127688                       # cumulative count of insts written-back
system.switch_cpus1.iew.wb_fanout            0.567196                       # average fanout of values written-back
system.switch_cpus1.iew.wb_producers        357021639                       # num instructions producing a value
system.switch_cpus1.iew.wb_rate              4.788522                       # insts written-back per cycle
system.switch_cpus1.iew.wb_sent             480381820                       # cumulative count of insts sent to commit
system.switch_cpus1.int_regfile_reads       665361526                       # number of integer regfile reads
system.switch_cpus1.int_regfile_writes      299671148                       # number of integer regfile writes
system.switch_cpus1.ipc                      2.498563                       # IPC: Instructions Per Cycle
system.switch_cpus1.ipc_total                2.498563                       # IPC: Total IPC of All Threads
system.switch_cpus1.iq.FU_type_0::No_OpClass      2597932      0.54%      0.54% # Type of FU issued
system.switch_cpus1.iq.FU_type_0::IntAlu    289952867     59.91%     60.45% # Type of FU issued
system.switch_cpus1.iq.FU_type_0::IntMult       973423      0.20%     60.65% # Type of FU issued
system.switch_cpus1.iq.FU_type_0::IntDiv            0      0.00%     60.65% # Type of FU issued
system.switch_cpus1.iq.FU_type_0::FloatAdd      1295041      0.27%     60.92% # Type of FU issued
system.switch_cpus1.iq.FU_type_0::FloatCmp            0      0.00%     60.92% # Type of FU issued
system.switch_cpus1.iq.FU_type_0::FloatCvt            0      0.00%     60.92% # Type of FU issued
system.switch_cpus1.iq.FU_type_0::FloatMult            0      0.00%     60.92% # Type of FU issued
system.switch_cpus1.iq.FU_type_0::FloatMultAcc            0      0.00%     60.92% # Type of FU issued
system.switch_cpus1.iq.FU_type_0::FloatDiv            0      0.00%     60.92% # Type of FU issued
system.switch_cpus1.iq.FU_type_0::FloatMisc            0      0.00%     60.92% # Type of FU issued
system.switch_cpus1.iq.FU_type_0::FloatSqrt            0      0.00%     60.92% # Type of FU issued
system.switch_cpus1.iq.FU_type_0::SimdAdd            0      0.00%     60.92% # Type of FU issued
system.switch_cpus1.iq.FU_type_0::SimdAddAcc            0      0.00%     60.92% # Type of FU issued
system.switch_cpus1.iq.FU_type_0::SimdAlu      3134834      0.65%     61.56% # Type of FU issued
system.switch_cpus1.iq.FU_type_0::SimdCmp            0      0.00%     61.56% # Type of FU issued
system.switch_cpus1.iq.FU_type_0::SimdCvt            0      0.00%     61.56% # Type of FU issued
system.switch_cpus1.iq.FU_type_0::SimdMisc       204013      0.04%     61.61% # Type of FU issued
system.switch_cpus1.iq.FU_type_0::SimdMult            0      0.00%     61.61% # Type of FU issued
system.switch_cpus1.iq.FU_type_0::SimdMultAcc            0      0.00%     61.61% # Type of FU issued
system.switch_cpus1.iq.FU_type_0::SimdShift            0      0.00%     61.61% # Type of FU issued
system.switch_cpus1.iq.FU_type_0::SimdShiftAcc            0      0.00%     61.61% # Type of FU issued
system.switch_cpus1.iq.FU_type_0::SimdDiv            0      0.00%     61.61% # Type of FU issued
system.switch_cpus1.iq.FU_type_0::SimdSqrt            0      0.00%     61.61% # Type of FU issued
system.switch_cpus1.iq.FU_type_0::SimdFloatAdd     17532716      3.62%     65.23% # Type of FU issued
system.switch_cpus1.iq.FU_type_0::SimdFloatAlu            0      0.00%     65.23% # Type of FU issued
system.switch_cpus1.iq.FU_type_0::SimdFloatCmp        60184      0.01%     65.24% # Type of FU issued
system.switch_cpus1.iq.FU_type_0::SimdFloatCvt      7672095      1.59%     66.83% # Type of FU issued
system.switch_cpus1.iq.FU_type_0::SimdFloatDiv       602005      0.12%     66.95% # Type of FU issued
system.switch_cpus1.iq.FU_type_0::SimdFloatMisc            0      0.00%     66.95% # Type of FU issued
system.switch_cpus1.iq.FU_type_0::SimdFloatMult     17421713      3.60%     70.55% # Type of FU issued
system.switch_cpus1.iq.FU_type_0::SimdFloatMultAcc            0      0.00%     70.55% # Type of FU issued
system.switch_cpus1.iq.FU_type_0::SimdFloatSqrt        41994      0.01%     70.56% # Type of FU issued
system.switch_cpus1.iq.FU_type_0::SimdReduceAdd            0      0.00%     70.56% # Type of FU issued
system.switch_cpus1.iq.FU_type_0::SimdReduceAlu            0      0.00%     70.56% # Type of FU issued
system.switch_cpus1.iq.FU_type_0::SimdReduceCmp            0      0.00%     70.56% # Type of FU issued
system.switch_cpus1.iq.FU_type_0::SimdFloatReduceAdd            0      0.00%     70.56% # Type of FU issued
system.switch_cpus1.iq.FU_type_0::SimdFloatReduceCmp            0      0.00%     70.56% # Type of FU issued
system.switch_cpus1.iq.FU_type_0::SimdAes            0      0.00%     70.56% # Type of FU issued
system.switch_cpus1.iq.FU_type_0::SimdAesMix            0      0.00%     70.56% # Type of FU issued
[...]
system.switch_cpus3.commit.numCommittedDist::stdev     3.311590                       # Number of insts commited each cycle
system.switch_cpus3.commit.numCommittedDist::underflows            0      0.00%      0.00% # Number of insts commited each cycle
system.switch_cpus3.commit.numCommittedDist::0     37677523     38.81%     38.81% # Number of insts commited each cycle
system.switch_cpus3.commit.numCommittedDist::1     15051764     15.51%     54.32% # Number of insts commited each cycle
system.switch_cpus3.commit.numCommittedDist::2      4617246      4.76%     59.07% # Number of insts commited each cycle
system.switch_cpus3.commit.numCommittedDist::3      4635844      4.78%     63.85% # Number of insts commited each cycle
system.switch_cpus3.commit.numCommittedDist::4      5860630      6.04%     69.89% # Number of insts commited each cycle
system.switch_cpus3.commit.numCommittedDist::5      1944598      2.00%     71.89% # Number of insts commited each cycle
system.switch_cpus3.commit.numCommittedDist::6      1988834      2.05%     73.94% # Number of insts commited each cycle
system.switch_cpus3.commit.numCommittedDist::7       330228      0.34%     74.28% # Number of insts commited each cycle
system.switch_cpus3.commit.numCommittedDist::8     24967560     25.72%    100.00% # Number of insts commited each cycle
system.switch_cpus3.commit.numCommittedDist::overflows            0      0.00%    100.00% # Number of insts commited each cycle
system.switch_cpus3.commit.numCommittedDist::min_value            0                       # Number of insts commited each cycle
system.switch_cpus3.commit.numCommittedDist::max_value            8                       # Number of insts commited each cycle
system.switch_cpus3.commit.numCommittedDist::total     97074227                       # Number of insts commited each cycle
system.switch_cpus3.commit.instsCommitted    187191603                       # Number of instructions committed
system.switch_cpus3.commit.opsCommitted     285344378                       # Number of ops (including micro ops) committed
system.switch_cpus3.commit.memRefs           56334886                       # Number of memory references committed
system.switch_cpus3.commit.loads             45776554                       # Number of loads committed
system.switch_cpus3.commit.amos                     0                       # Number of atomic instructions committed
system.switch_cpus3.commit.membars                  0                       # Number of memory barriers committed
system.switch_cpus3.commit.branches          18364083                       # Number of branches committed
system.switch_cpus3.commit.vector                   0                       # Number of committed Vector instructions.
system.switch_cpus3.commit.floating         159753298                       # Number of committed floating point instructions.
system.switch_cpus3.commit.integer          172401246                       # Number of committed integer instructions.
system.switch_cpus3.commit.functionCalls       212371                       # Number of function calls committed.
system.switch_cpus3.commit.committedInstType_0::No_OpClass          984      0.00%      0.00% # Class of committed instruction
system.switch_cpus3.commit.committedInstType_0::IntAlu    138880991     48.67%     48.67% # Class of committed instruction
system.switch_cpus3.commit.committedInstType_0::IntMult      1471347      0.52%     49.19% # Class of committed instruction
system.switch_cpus3.commit.committedInstType_0::IntDiv            0      0.00%     49.19% # Class of committed instruction
system.switch_cpus3.commit.committedInstType_0::FloatAdd      2549152      0.89%     50.08% # Class of committed instruction
system.switch_cpus3.commit.committedInstType_0::FloatCmp            0      0.00%     50.08% # Class of committed instruction
system.switch_cpus3.commit.committedInstType_0::FloatCvt            0      0.00%     50.08% # Class of committed instruction
system.switch_cpus3.commit.committedInstType_0::FloatMult            0      0.00%     50.08% # Class of committed instruction
system.switch_cpus3.commit.committedInstType_0::FloatMultAcc            0      0.00%     50.08% # Class of committed instruction
system.switch_cpus3.commit.committedInstType_0::FloatDiv            0      0.00%     50.08% # Class of committed instruction
system.switch_cpus3.commit.committedInstType_0::FloatMisc            0      0.00%     50.08% # Class of committed instruction
system.switch_cpus3.commit.committedInstType_0::FloatSqrt            0      0.00%     50.08% # Class of committed instruction
system.switch_cpus3.commit.committedInstType_0::SimdAdd            0      0.00%     50.08% # Class of committed instruction
system.switch_cpus3.commit.committedInstType_0::SimdAddAcc            0      0.00%     50.08% # Class of committed instruction
system.switch_cpus3.commit.committedInstType_0::SimdAlu      3843158      1.35%     51.43% # Class of committed instruction
system.switch_cpus3.commit.committedInstType_0::SimdCmp            0      0.00%     51.43% # Class of committed instruction
system.switch_cpus3.commit.committedInstType_0::SimdCvt            0      0.00%     51.43% # Class of committed instruction
system.switch_cpus3.commit.committedInstType_0::SimdMisc      1486597      0.52%     51.95% # Class of committed instruction
system.switch_cpus3.commit.committedInstType_0::SimdMult            0      0.00%     51.95% # Class of committed instruction
system.switch_cpus3.commit.committedInstType_0::SimdMultAcc            0      0.00%     51.95% # Class of committed instruction
system.switch_cpus3.commit.committedInstType_0::SimdShift            0      0.00%     51.95% # Class of committed instruction
system.switch_cpus3.commit.committedInstType_0::SimdShiftAcc            0      0.00%     51.95% # Class of committed instruction
system.switch_cpus3.commit.committedInstType_0::SimdDiv            0      0.00%     51.95% # Class of committed instruction
system.switch_cpus3.commit.committedInstType_0::SimdSqrt            0      0.00%     51.95% # Class of committed instruction
system.switch_cpus3.commit.committedInstType_0::SimdFloatAdd     31625135     11.08%     63.03% # Class of committed instruction
system.switch_cpus3.commit.committedInstType_0::SimdFloatAlu            0      0.00%     63.03% # Class of committed instruction
system.switch_cpus3.commit.committedInstType_0::SimdFloatCmp            0      0.00%     63.03% # Class of committed instruction
system.switch_cpus3.commit.committedInstType_0::SimdFloatCvt      9117519      3.20%     66.23% # Class of committed instruction
system.switch_cpus3.commit.committedInstType_0::SimdFloatDiv      1707041      0.60%     66.83% # Class of committed instruction
system.switch_cpus3.commit.committedInstType_0::SimdFloatMisc            0      0.00%     66.83% # Class of committed instruction
system.switch_cpus3.commit.committedInstType_0::SimdFloatMult     36857206     12.92%     79.74% # Class of committed instruction
system.switch_cpus3.commit.committedInstType_0::SimdFloatMultAcc            0      0.00%     79.74% # Class of committed instruction
system.switch_cpus3.commit.committedInstType_0::SimdFloatSqrt      1470362      0.52%     80.26% # Class of committed instruction
system.switch_cpus3.commit.committedInstType_0::SimdReduceAdd            0      0.00%     80.26% # Class of committed instruction
system.switch_cpus3.commit.committedInstType_0::SimdReduceAlu            0      0.00%     80.26% # Class of committed instruction
system.switch_cpus3.commit.committedInstType_0::SimdReduceCmp            0      0.00%     80.26% # Class of committed instruction
system.switch_cpus3.commit.committedInstType_0::SimdFloatReduceAdd            0      0.00%     80.26% # Class of committed instruction
system.switch_cpus3.commit.committedInstType_0::SimdFloatReduceCmp            0      0.00%     80.26% # Class of committed instruction
system.switch_cpus3.commit.committedInstType_0::SimdAes            0      0.00%     80.26% # Class of committed instruction
system.switch_cpus3.commit.committedInstType_0::SimdAesMix            0      0.00%     80.26% # Class of committed instruction
system.switch_cpus3.commit.committedInstType_0::SimdSha1Hash            0      0.00%     80.26% # Class of committed instruction
system.switch_cpus3.commit.committedInstType_0::SimdSha1Hash2            0      0.00%     80.26% # Class of committed instruction
system.switch_cpus3.commit.committedInstType_0::SimdSha256Hash            0      0.00%     80.26% # Class of committed instruction
system.switch_cpus3.commit.committedInstType_0::SimdSha256Hash2            0      0.00%     80.26% # Class of committed instruction
system.switch_cpus3.commit.committedInstType_0::SimdShaSigma2            0      0.00%     80.26% # Class of committed instruction
system.switch_cpus3.commit.committedInstType_0::SimdShaSigma3            0      0.00%     80.26% # Class of committed instruction
system.switch_cpus3.commit.committedInstType_0::SimdPredAlu            0      0.00%     80.26% # Class of committed instruction
system.switch_cpus3.commit.committedInstType_0::MemRead      8034187      2.82%     83.07% # Class of committed instruction
system.switch_cpus3.commit.committedInstType_0::MemWrite      2976146      1.04%     84.12% # Class of committed instruction
system.switch_cpus3.commit.committedInstType_0::FloatMemRead     37742367     13.23%     97.34% # Class of committed instruction
system.switch_cpus3.commit.committedInstType_0::FloatMemWrite      7582186      2.66%    100.00% # Class of committed instruction
system.switch_cpus3.commit.committedInstType_0::IprAccess            0      0.00%    100.00% # Class of committed instruction
system.switch_cpus3.commit.committedInstType_0::InstPrefetch            0      0.00%    100.00% # Class of committed instruction
system.switch_cpus3.commit.committedInstType_0::total    285344378                       # Class of committed instruction
system.switch_cpus3.commit.commitEligibleSamples     24967560                       # number cycles where commit BW limit reached
system.switch_cpus3.decode.idleCycles         8064432                       # Number of cycles decode is idle
system.switch_cpus3.decode.blockedCycles     51122719                       # Number of cycles decode is blocked
system.switch_cpus3.decode.runCycles         25269843                       # Number of cycles decode is running
system.switch_cpus3.decode.unblockCycles     15369672                       # Number of cycles decode is unblocking
system.switch_cpus3.decode.squashCycles        207371                       # Number of cycles decode is squashing
system.switch_cpus3.decode.branchResolved      8650160                       # Number of times decode resolved a  branch
system.switch_cpus3.decode.branchMispred           42                       # Number of times decode detected a branch misprediction
system.switch_cpus3.decode.decodedInsts     312030551                       # Number of instructions handled by decode
system.switch_cpus3.decode.squashedInsts          171                       # Number of squashed instructions handled by decode
system.switch_cpus3.dtb.rdAccesses           47775086                       # TLB accesses on read requests
system.switch_cpus3.dtb.wrAccesses           12863824                       # TLB accesses on write requests
system.switch_cpus3.dtb.rdMisses                47026                       # TLB misses on read requests
system.switch_cpus3.dtb.wrMisses                    0                       # TLB misses on write requests
system.switch_cpus3.dtb.walker.power_state.pwrStateResidencyTicks::UNDEFINED 16848470075256                       # Cumulative time (in ticks) in various power states
system.switch_cpus3.fetch.icacheStallCycles       206519                       # Number of cycles fetch is stalled on an Icache miss
system.switch_cpus3.fetch.insts             207165892                       # Number of instructions fetch has processed
system.switch_cpus3.fetch.branches           20184725                       # Number of branches that fetch encountered
system.switch_cpus3.fetch.predictedBranches      9480569                       # Number of branches that fetch has predicted taken
system.switch_cpus3.fetch.cycles             99620115                       # Number of cycles fetch has run and was not squashing or blocked
system.switch_cpus3.fetch.squashCycles         414826                       # Number of cycles fetch has spent squashing
system.switch_cpus3.fetch.cacheLines         23522406                       # Number of cache lines fetched
system.switch_cpus3.fetch.icacheSquashes           59                       # Number of outstanding Icache misses that were squashed
system.switch_cpus3.fetch.nisnDist::samples    100034047                       # Number of instructions fetched each cycle (Total)
system.switch_cpus3.fetch.nisnDist::mean     3.164713                       # Number of instructions fetched each cycle (Total)
system.switch_cpus3.fetch.nisnDist::stdev     3.451747                       # Number of instructions fetched each cycle (Total)
system.switch_cpus3.fetch.nisnDist::underflows            0      0.00%      0.00% # Number of instructions fetched each cycle (Total)
system.switch_cpus3.fetch.nisnDist::0        45183984     45.17%     45.17% # Number of instructions fetched each cycle (Total)
system.switch_cpus3.fetch.nisnDist::1         4588838      4.59%     49.76% # Number of instructions fetched each cycle (Total)
system.switch_cpus3.fetch.nisnDist::2         4839005      4.84%     54.59% # Number of instructions fetched each cycle (Total)
system.switch_cpus3.fetch.nisnDist::3         4233574      4.23%     58.83% # Number of instructions fetched each cycle (Total)
system.switch_cpus3.fetch.nisnDist::4         5544916      5.54%     64.37% # Number of instructions fetched each cycle (Total)
system.switch_cpus3.fetch.nisnDist::5         3973753      3.97%     68.34% # Number of instructions fetched each cycle (Total)
system.switch_cpus3.fetch.nisnDist::6         1853303      1.85%     70.19% # Number of instructions fetched each cycle (Total)
system.switch_cpus3.fetch.nisnDist::7         2090128      2.09%     72.28% # Number of instructions fetched each cycle (Total)
system.switch_cpus3.fetch.nisnDist::8        27726546     27.72%    100.00% # Number of instructions fetched each cycle (Total)
system.switch_cpus3.fetch.nisnDist::overflows            0      0.00%    100.00% # Number of instructions fetched each cycle (Total)
system.switch_cpus3.fetch.nisnDist::min_value            0                       # Number of instructions fetched each cycle (Total)
system.switch_cpus3.fetch.nisnDist::max_value            8                       # Number of instructions fetched each cycle (Total)
system.switch_cpus3.fetch.nisnDist::total    100034047                       # Number of instructions fetched each cycle (Total)
system.switch_cpus3.fetch.branchRate         0.201731                       # Number of branch fetches per cycle
system.switch_cpus3.fetch.rate               2.070468                       # Number of inst fetches per cycle
system.switch_cpus3.itb.rdAccesses                  0                       # TLB accesses on read requests
system.switch_cpus3.itb.wrAccesses           23522406                       # TLB accesses on write requests
system.switch_cpus3.itb.rdMisses                    0                       # TLB misses on read requests
system.switch_cpus3.itb.wrMisses                   10                       # TLB misses on write requests
system.switch_cpus3.itb.walker.power_state.pwrStateResidencyTicks::UNDEFINED 16848470075256                       # Cumulative time (in ticks) in various power states
system.switch_cpus3.lsq0.forwLoads             365974                       # Number of loads that had data forwarded from stores
system.switch_cpus3.lsq0.squashedLoads        2788765                       # Number of loads squashed
system.switch_cpus3.lsq0.ignoredResponses            8                       # Number of memory responses ignored because the instruction is squashed
system.switch_cpus3.lsq0.memOrderViolation          459                       # Number of memory ordering violations
system.switch_cpus3.lsq0.squashedStores       2741895                       # Number of stores squashed
system.switch_cpus3.lsq0.rescheduledLoads            0                       # Number of loads that were rescheduled
system.switch_cpus3.lsq0.blockedByCache             0                       # Number of times an access to memory failed due to the cache being blocked
system.switch_cpus3.power_state.pwrStateResidencyTicks::OFF  33319169145                       # Cumulative time (in ticks) in various power states
system.switch_cpus3.rename.squashCycles        207371                       # Number of cycles rename is squashing
system.switch_cpus3.rename.idleCycles        13242710                       # Number of cycles rename is idle
system.switch_cpus3.rename.blockCycles       29976348                       # Number of cycles rename is blocking
system.switch_cpus3.rename.serializeStallCycles            0                       # count of cycles rename stalledfor serializing inst
system.switch_cpus3.rename.runCycles         35293799                       # Number of cycles rename is running
system.switch_cpus3.rename.unblockCycles     21313809                       # Number of cycles rename is unblocking
system.switch_cpus3.rename.renamedInsts     310653060                       # Number of instructions processed by rename
system.switch_cpus3.rename.ROBFullEvents        38791                       # Number of times rename has blocked due to ROB full
system.switch_cpus3.rename.IQFullEvents      15219591                       # Number of times rename has blocked due to IQ full
system.switch_cpus3.rename.LQFullEvents       2106857                       # Number of times rename has blocked due to LQ full
system.switch_cpus3.rename.SQFullEvents            30                       # Number of times rename has blocked due to SQ full
system.switch_cpus3.rename.renamedOperands    326268250                       # Number of destination operands rename has renamed
system.switch_cpus3.rename.lookups          812476221                       # Number of register rename lookups that rename has made
system.switch_cpus3.rename.intLookups       257567005                       # Number of integer rename lookups
system.switch_cpus3.rename.fpLookups        321688996                       # Number of floating rename lookups
system.switch_cpus3.rename.committedMaps    300334299                       # Number of HB maps that are committed
system.switch_cpus3.rename.undoneMaps        25933822                       # Number of HB maps that are undone due to squashing
system.switch_cpus3.rename.serializing              0                       # count of serializing insts renamed
system.switch_cpus3.rename.tempSerializing            0                       # count of temporary serializing insts renamed
system.switch_cpus3.rename.skidInsts         63240162                       # count of insts added to the skid buffer
system.switch_cpus3.rob.reads               380420323                       # The number of ROB reads
system.switch_cpus3.rob.writes              619587290                       # The number of ROB writes
system.switch_cpus3.thread0.numInsts        187191603                       # Number of Instructions committed
system.switch_cpus3.thread0.numOps          285344378                       # Number of Ops committed
system.switch_cpus3.thread0.numMemRefs              0                       # Number of Memory References
system.voltage_domain.voltage                       1                       # Voltage in Volts

---------- End Simulation Statistics   ----------
