Command line:
./runscript_pride.sh lbm RFM2.BR2.4C 4 2017 --rh_defense --rh_mitigation=RFM --rh_rfm_per_trefi=2 --rh_rfm_blast_radius=2 --rh_rfm_maxacts_per_trefi=79
Global frequency set at 1000000000000 ticks per second
RFM details - rfm_act_threshold: 39, blast_radius: 2, delay_per_rfm: 175000 ps. sample_rate: 0.025000
RH Defense config: RFM, Bus Delay: 0, rfms_per_trefi: 2, rfm_act_threshold: 39, blast_radius: 2,rfm_delay_per_act: 45000 ps.
DRAM config: RowsPerBank: 65536, BanksPerRank: 32, RanksPerChannel: 1
warn: Sockets disabled, not accepting gdb connections
warn: CoherentXBar system.cpu0.mmucache.mmubus has no snooping ports attached!
warn: CoherentXBar system.cpu1.mmucache.mmubus has no snooping ports attached!
warn: CoherentXBar system.cpu2.mmucache.mmubus has no snooping ports attached!
warn: CoherentXBar system.cpu3.mmucache.mmubus has no snooping ports attached!
warn: Checkpoints for file descriptors currently do not work.
warn: Checkpoints for file descriptors currently do not work.
warn: Checkpoints for file descriptors currently do not work.
warn: Checkpoints for file descriptors currently do not work.
gem5 Simulator System.  http://gem5.org
gem5 is copyrighted software; use the --copyright option for details.

gem5 version 20.1.0.5
gem5 compiled Jul 12 2024 12:42:38
gem5 started Aug  1 2024 16:47:12
gem5 executing on a07dda8b130c, pid 250118
command line: /home/user/PrIDE/performance/gem5/build/X86/gem5.opt --outdir=/home/user/PrIDE/performance/gem5/stats/pride_multiprogram_16GBmem_250Mn.SPEC2017.C4/RFM2.BR2.4C/lbm /home/user/PrIDE/performance/gem5/configs/example/se_rq_spec_config_multicore.py --redirects /lib64=/home/utils/gcc-6.2.0/lib64 --benchmark=lbm --benchmark_stdout=/home/user/PrIDE/performance/gem5/stats/pride_multiprogram_16GBmem_250Mn.SPEC2017.C4/RFM2.BR2.4C/lbm/lbm.out --benchmark_stderr=/home/user/PrIDE/performance/gem5/stats/pride_multiprogram_16GBmem_250Mn.SPEC2017.C4/RFM2.BR2.4C/lbm/lbm.err --spec-version=2017 --rh_defense --rh_mitigation=RFM --rh_rfm_per_trefi=2 --rh_rfm_blast_radius=2 --rh_rfm_maxacts_per_trefi=79 --num-cpus=4 --mem-size=16GB --mem-type=DDR5_2400_32x4 --mem-ranks=1 --mem-channels=1 --checkpoint-dir=/home/user/PrIDE/performance/gem5/cpts-DDR5/multiprogram_16GBmem_25Bn.SPEC2017.C4/lbm-1-ref-x86 --checkpoint-restore=25000000000 --at-instruction --cpu-type DerivO3CPU --caches --l2cache --l1d_size=32kB --l1i_size=32kB --l2_size=256kB --l3_size=4MB --l1d_assoc=8 --l1i_assoc=8 --l2_assoc=16 --l3_assoc=16 --cpu-clock=3GHz --sys-clock=3GHz --maxinsts=250000000 --prog-interval=300Hz

info: Standard input is not a terminal, disabling listeners.
Benchmark- 0   lbm
Selected benchmark
--> lbm
CMD: ['/opt/spec2017/benchspec/CPU/519.lbm_r/run/run_base_refrate_gem5_se-m64.0000/lbm_r_base.gem5_se-m64', '3000', 'reference.dat', '0', '0', '/opt/spec2017/benchspec/CPU/519.lbm_r/run/run_base_refrate_gem5_se-m64.0000/100_100_130_ldc.of']
CWD: /opt/spec2017/benchspec/CPU/519.lbm_r/run/run_base_refrate_gem5_se-m64.0000/
Process stdout file: /home/user/PrIDE/performance/gem5/stats/pride_multiprogram_16GBmem_250Mn.SPEC2017.C4/RFM2.BR2.4C/lbm/lbm.out_0
Process stderr file: /home/user/PrIDE/performance/gem5/stats/pride_multiprogram_16GBmem_250Mn.SPEC2017.C4/RFM2.BR2.4C/lbm/lbm.err_0
Benchmark- 1   lbm
Selected benchmark
--> lbm
CMD: ['/opt/spec2017/benchspec/CPU/519.lbm_r/run/run_base_refrate_gem5_se-m64.0000/lbm_r_base.gem5_se-m64', '3000', 'reference.dat', '0', '0', '/opt/spec2017/benchspec/CPU/519.lbm_r/run/run_base_refrate_gem5_se-m64.0000/100_100_130_ldc.of']
CWD: /opt/spec2017/benchspec/CPU/519.lbm_r/run/run_base_refrate_gem5_se-m64.0000/
Process stdout file: /home/user/PrIDE/performance/gem5/stats/pride_multiprogram_16GBmem_250Mn.SPEC2017.C4/RFM2.BR2.4C/lbm/lbm.out_1
Process stderr file: /home/user/PrIDE/performance/gem5/stats/pride_multiprogram_16GBmem_250Mn.SPEC2017.C4/RFM2.BR2.4C/lbm/lbm.err_1
Benchmark- 2   lbm
Selected benchmark
--> lbm
CMD: ['/opt/spec2017/benchspec/CPU/519.lbm_r/run/run_base_refrate_gem5_se-m64.0000/lbm_r_base.gem5_se-m64', '3000', 'reference.dat', '0', '0', '/opt/spec2017/benchspec/CPU/519.lbm_r/run/run_base_refrate_gem5_se-m64.0000/100_100_130_ldc.of']
CWD: /opt/spec2017/benchspec/CPU/519.lbm_r/run/run_base_refrate_gem5_se-m64.0000/
Process stdout file: /home/user/PrIDE/performance/gem5/stats/pride_multiprogram_16GBmem_250Mn.SPEC2017.C4/RFM2.BR2.4C/lbm/lbm.out_2
Process stderr file: /home/user/PrIDE/performance/gem5/stats/pride_multiprogram_16GBmem_250Mn.SPEC2017.C4/RFM2.BR2.4C/lbm/lbm.err_2
Benchmark- 3   lbm
Selected benchmark
--> lbm
CMD: ['/opt/spec2017/benchspec/CPU/519.lbm_r/run/run_base_refrate_gem5_se-m64.0000/lbm_r_base.gem5_se-m64', '3000', 'reference.dat', '0', '0', '/opt/spec2017/benchspec/CPU/519.lbm_r/run/run_base_refrate_gem5_se-m64.0000/100_100_130_ldc.of']
CWD: /opt/spec2017/benchspec/CPU/519.lbm_r/run/run_base_refrate_gem5_se-m64.0000/
Process stdout file: /home/user/PrIDE/performance/gem5/stats/pride_multiprogram_16GBmem_250Mn.SPEC2017.C4/RFM2.BR2.4C/lbm/lbm.out_3
Process stderr file: /home/user/PrIDE/performance/gem5/stats/pride_multiprogram_16GBmem_250Mn.SPEC2017.C4/RFM2.BR2.4C/lbm/lbm.err_3
Workload-0: 
['/opt/spec2017/benchspec/CPU/519.lbm_r/run/run_base_refrate_gem5_se-m64.0000/lbm_r_base.gem5_se-m64', '3000', 'reference.dat', '0', '0', '/opt/spec2017/benchspec/CPU/519.lbm_r/run/run_base_refrate_gem5_se-m64.0000/100_100_130_ldc.of']
Workload-1: 
['/opt/spec2017/benchspec/CPU/519.lbm_r/run/run_base_refrate_gem5_se-m64.0000/lbm_r_base.gem5_se-m64', '3000', 'reference.dat', '0', '0', '/opt/spec2017/benchspec/CPU/519.lbm_r/run/run_base_refrate_gem5_se-m64.0000/100_100_130_ldc.of']
Workload-2: 
['/opt/spec2017/benchspec/CPU/519.lbm_r/run/run_base_refrate_gem5_se-m64.0000/lbm_r_base.gem5_se-m64', '3000', 'reference.dat', '0', '0', '/opt/spec2017/benchspec/CPU/519.lbm_r/run/run_base_refrate_gem5_se-m64.0000/100_100_130_ldc.of']
Workload-3: 
['/opt/spec2017/benchspec/CPU/519.lbm_r/run/run_base_refrate_gem5_se-m64.0000/lbm_r_base.gem5_se-m64', '3000', 'reference.dat', '0', '0', '/opt/spec2017/benchspec/CPU/519.lbm_r/run/run_base_refrate_gem5_se-m64.0000/100_100_130_ldc.of']
defense_enable:  True  detector:  MG  mitigation:  RFM  threshold:  800
mg_entries:  1700
rfm_maxacts_per_trefi:  79 rfm_per_trefi:  2 rfm_blast_radius:  2
Switch at curTick count:10000
warn: membus.master is deprecated. `master` is now called `mem_side_ports`
warn: No dot file generated. Please install pydot to generate the dot file and pdf.
info: Entering event queue @ 13719052595286.  Starting simulation...
warn: PowerState: Already in the requested power state, request ignored
Switched CPUS @ tick 13719052605286
switching cpus
**** REAL SIMULATION ****
info: Entering event queue @ 13719052605286.  Starting simulation...
13722385928619: Event_285: system.switch_cpus3 progress event, total committed:3228140, progress insts committed: 3228140, IPC: 0.322491
13722385928619: Event_284: system.switch_cpus2 progress event, total committed:3231577, progress insts committed: 3231577, IPC: 0.322835
13722385928619: Event_283: system.switch_cpus1 progress event, total committed:3214508, progress insts committed: 3214508, IPC: 0.321129
13722385928619: Event_282: system.switch_cpus0 progress event, total committed:3231864, progress insts committed: 3231864, IPC: 0.322863
13725719261952: Event_282: system.switch_cpus0 progress event, total committed:6099255, progress insts committed: 2867391, IPC: 0.286452
13725719261952: Event_283: system.switch_cpus1 progress event, total committed:6064004, progress insts committed: 2849496, IPC: 0.284665
13725719261952: Event_284: system.switch_cpus2 progress event, total committed:6100536, progress insts committed: 2868959, IPC: 0.286609
13725719261952: Event_285: system.switch_cpus3 progress event, total committed:6098408, progress insts committed: 2870268, IPC: 00.28674
13729052595285: Event_285: system.switch_cpus3 progress event, total committed:8807300, progress insts committed: 2708892, IPC: 0.270618
13729052595285: Event_284: system.switch_cpus2 progress event, total committed:8814216, progress insts committed: 2713680, IPC: 0.271097
13729052595285: Event_283: system.switch_cpus1 progress event, total committed:8763534, progress insts committed: 2699530, IPC: 0.269683
13729052595285: Event_282: system.switch_cpus0 progress event, total committed:8807832, progress insts committed: 2708577, IPC: 0.270587
13732385928618: Event_282: system.switch_cpus0 progress event, total committed:11766398, progress insts committed: 2958566, IPC: 0.295561
13732385928618: Event_283: system.switch_cpus1 progress event, total committed:11718404, progress insts committed: 2954870, IPC: 0.295192
13732385928618: Event_284: system.switch_cpus2 progress event, total committed:11770122, progress insts committed: 2955906, IPC: 0.295295
13732385928618: Event_285: system.switch_cpus3 progress event, total committed:11765047, progress insts committed: 2957747, IPC: 0.295479
13735719261951: Event_285: system.switch_cpus3 progress event, total committed:14561412, progress insts committed: 2796365, IPC: 0.279357
13735719261951: Event_284: system.switch_cpus2 progress event, total committed:14575395, progress insts committed: 2805273, IPC: 0.280247
13735719261951: Event_283: system.switch_cpus1 progress event, total committed:14522704, progress insts committed: 2804300, IPC: 00.28015
13735719261951: Event_282: system.switch_cpus0 progress event, total committed:14574193, progress insts committed: 2807795, IPC: 0.280499
13739052595284: Event_282: system.switch_cpus0 progress event, total committed:17354298, progress insts committed: 2780105, IPC: 0.277732
13739052595284: Event_283: system.switch_cpus1 progress event, total committed:17300162, progress insts committed: 2777458, IPC: 0.277468
13739052595284: Event_284: system.switch_cpus2 progress event, total committed:17355951, progress insts committed: 2780556, IPC: 0.277778
13739052595284: Event_285: system.switch_cpus3 progress event, total committed:17318358, progress insts committed: 2756946, IPC: 0.275419
13742385928617: Event_285: system.switch_cpus3 progress event, total committed:20166754, progress insts committed: 2848396, IPC: 0.284555
13742385928617: Event_284: system.switch_cpus2 progress event, total committed:20212339, progress insts committed: 2856388, IPC: 0.285353
13742385928617: Event_283: system.switch_cpus1 progress event, total committed:20161144, progress insts committed: 2860982, IPC: 0.285812
13742385928617: Event_282: system.switch_cpus0 progress event, total committed:20212088, progress insts committed: 2857790, IPC: 0.285493
13745719261950: Event_282: system.switch_cpus0 progress event, total committed:23026081, progress insts committed: 2813993, IPC: 0.281118
13745719261950: Event_283: system.switch_cpus1 progress event, total committed:22974252, progress insts committed: 2813108, IPC: 0.281029
13745719261950: Event_284: system.switch_cpus2 progress event, total committed:23032752, progress insts committed: 2820413, IPC: 0.281759
13745719261950: Event_285: system.switch_cpus3 progress event, total committed:22982875, progress insts committed: 2816121, IPC: 00.28133
13749052595283: Event_285: system.switch_cpus3 progress event, total committed:25935230, progress insts committed: 2952355, IPC: 00.29494
13749052595283: Event_284: system.switch_cpus2 progress event, total committed:25985352, progress insts committed: 2952600, IPC: 0.294965
13749052595283: Event_283: system.switch_cpus1 progress event, total committed:25932812, progress insts committed: 2958560, IPC: 00.29556
13749052595283: Event_282: system.switch_cpus0 progress event, total committed:25972294, progress insts committed: 2946213, IPC: 0.294327
13752385928616: Event_282: system.switch_cpus0 progress event, total committed:28631710, progress insts committed: 2659416, IPC: 0.265676
13752385928616: Event_283: system.switch_cpus1 progress event, total committed:28602868, progress insts committed: 2670056, IPC: 0.266739
13752385928616: Event_284: system.switch_cpus2 progress event, total committed:28660683, progress insts committed: 2675331, IPC: 0.267266
13752385928616: Event_285: system.switch_cpus3 progress event, total committed:28609252, progress insts committed: 2674022, IPC: 0.267135
13755719261949: Event_285: system.switch_cpus3 progress event, total committed:31440455, progress insts committed: 2831203, IPC: 0.282837
13755719261949: Event_284: system.switch_cpus2 progress event, total committed:31492160, progress insts committed: 2831477, IPC: 0.282865
13755719261949: Event_283: system.switch_cpus1 progress event, total committed:31434136, progress insts committed: 2831268, IPC: 0.282844
13755719261949: Event_282: system.switch_cpus0 progress event, total committed:31464382, progress insts committed: 2832672, IPC: 0.282984
13759052595282: Event_282: system.switch_cpus0 progress event, total committed:34098635, progress insts committed: 2634253, IPC: 0.263162
13759052595282: Event_283: system.switch_cpus1 progress event, total committed:34061924, progress insts committed: 2627788, IPC: 0.262516
13759052595282: Event_284: system.switch_cpus2 progress event, total committed:34128009, progress insts committed: 2635849, IPC: 0.263321
13759052595282: Event_285: system.switch_cpus3 progress event, total committed:34084026, progress insts committed: 2643571, IPC: 0.264093
13762385928615: Event_285: system.switch_cpus3 progress event, total committed:36880256, progress insts committed: 2796230, IPC: 0.279343
13762385928615: Event_284: system.switch_cpus2 progress event, total committed:36931916, progress insts committed: 2803907, IPC: 00.28011
13762385928615: Event_283: system.switch_cpus1 progress event, total committed:36869236, progress insts committed: 2807312, IPC: 00.28045
13762385928615: Event_282: system.switch_cpus0 progress event, total committed:36893822, progress insts committed: 2795187, IPC: 0.279239
13765719261948: Event_282: system.switch_cpus0 progress event, total committed:39446448, progress insts committed: 2552626, IPC: 0.255007
13765719261948: Event_283: system.switch_cpus1 progress event, total committed:39404955, progress insts committed: 2535719, IPC: 0.253318
13765719261948: Event_284: system.switch_cpus2 progress event, total committed:39470260, progress insts committed: 2538344, IPC: 0.253581
13765719261948: Event_285: system.switch_cpus3 progress event, total committed:39428895, progress insts committed: 2548639, IPC: 0.254609
13769052595281: Event_285: system.switch_cpus3 progress event, total committed:42155996, progress insts committed: 2727101, IPC: 0.272437
13769052595281: Event_284: system.switch_cpus2 progress event, total committed:42197610, progress insts committed: 2727350, IPC: 0.272462
13769052595281: Event_283: system.switch_cpus1 progress event, total committed:42135784, progress insts committed: 2730829, IPC: 00.27281
13769052595281: Event_282: system.switch_cpus0 progress event, total committed:42168323, progress insts committed: 2721875, IPC: 0.271915
13772385928614: Event_282: system.switch_cpus0 progress event, total committed:44709033, progress insts committed: 2540710, IPC: 0.253817
13772385928614: Event_283: system.switch_cpus1 progress event, total committed:44682064, progress insts committed: 2546280, IPC: 0.254373
13772385928614: Event_284: system.switch_cpus2 progress event, total committed:44739932, progress insts committed: 2542322, IPC: 0.253978
13772385928614: Event_285: system.switch_cpus3 progress event, total committed:44691484, progress insts committed: 2535488, IPC: 0.253295
13775719261947: Event_285: system.switch_cpus3 progress event, total committed:47382050, progress insts committed: 2690566, IPC: 0.268788
13775719261947: Event_284: system.switch_cpus2 progress event, total committed:47419114, progress insts committed: 2679182, IPC: 00.26765
13775719261947: Event_283: system.switch_cpus1 progress event, total committed:47360238, progress insts committed: 2678174, IPC: 00.26755
13775719261947: Event_282: system.switch_cpus0 progress event, total committed:47398255, progress insts committed: 2689222, IPC: 0.268653
13779052595280: Event_282: system.switch_cpus0 progress event, total committed:49926568, progress insts committed: 2528313, IPC: 0.252578
13779052595280: Event_283: system.switch_cpus1 progress event, total committed:49900386, progress insts committed: 2540148, IPC: 0.253761
13779052595280: Event_284: system.switch_cpus2 progress event, total committed:49960329, progress insts committed: 2541215, IPC: 0.253867
13779052595280: Event_285: system.switch_cpus3 progress event, total committed:49921134, progress insts committed: 2539084, IPC: 0.253654
13782385928613: Event_285: system.switch_cpus3 progress event, total committed:52642504, progress insts committed: 2721370, IPC: 0.271865
13782385928613: Event_284: system.switch_cpus2 progress event, total committed:52693236, progress insts committed: 2732907, IPC: 0.273017
13782385928613: Event_283: system.switch_cpus1 progress event, total committed:52632781, progress insts committed: 2732395, IPC: 0.272966
13782385928613: Event_282: system.switch_cpus0 progress event, total committed:52658464, progress insts committed: 2731896, IPC: 0.272916
13785719261946: Event_282: system.switch_cpus0 progress event, total committed:55213153, progress insts committed: 2554689, IPC: 0.255213
13785719261946: Event_283: system.switch_cpus1 progress event, total committed:55184471, progress insts committed: 2551690, IPC: 0.254914
13785719261946: Event_284: system.switch_cpus2 progress event, total committed:55241538, progress insts committed: 2548302, IPC: 0.254575
13785719261946: Event_285: system.switch_cpus3 progress event, total committed:55204996, progress insts committed: 2562492, IPC: 0.255993
13789052595279: Event_285: system.switch_cpus3 progress event, total committed:57937538, progress insts committed: 2732542, IPC: 0.272981
13789052595279: Event_284: system.switch_cpus2 progress event, total committed:57982403, progress insts committed: 2740865, IPC: 0.273812
13789052595279: Event_283: system.switch_cpus1 progress event, total committed:57928912, progress insts committed: 2744441, IPC: 00.27417
13789052595279: Event_282: system.switch_cpus0 progress event, total committed:57952676, progress insts committed: 2739523, IPC: 0.273678
13792385928612: Event_282: system.switch_cpus0 progress event, total committed:60586152, progress insts committed: 2633476, IPC: 0.263084
13792385928612: Event_283: system.switch_cpus1 progress event, total committed:60554178, progress insts committed: 2625266, IPC: 0.262264
13792385928612: Event_284: system.switch_cpus2 progress event, total committed:60616593, progress insts committed: 2634190, IPC: 0.263156
13792385928612: Event_285: system.switch_cpus3 progress event, total committed:60571818, progress insts committed: 2634280, IPC: 0.263165
13795719261945: Event_285: system.switch_cpus3 progress event, total committed:63229348, progress insts committed: 2657530, IPC: 0.265487
13795719261945: Event_284: system.switch_cpus2 progress event, total committed:63240780, progress insts committed: 2624187, IPC: 0.262156
13795719261945: Event_283: system.switch_cpus1 progress event, total committed:63229130, progress insts committed: 2674952, IPC: 0.267228
13795719261945: Event_282: system.switch_cpus0 progress event, total committed:63229525, progress insts committed: 2643373, IPC: 0.264073
13799052595278: Event_282: system.switch_cpus0 progress event, total committed:66002050, progress insts committed: 2772525, IPC: 0.276975
13799052595278: Event_283: system.switch_cpus1 progress event, total committed:65976932, progress insts committed: 2747802, IPC: 0.274505
13799052595278: Event_284: system.switch_cpus2 progress event, total committed:66043791, progress insts committed: 2803011, IPC: 0.280021
13799052595278: Event_285: system.switch_cpus3 progress event, total committed:65997399, progress insts committed: 2768051, IPC: 0.276528
13802385928611: Event_285: system.switch_cpus3 progress event, total committed:68622836, progress insts committed: 2625437, IPC: 0.262281
13802385928611: Event_284: system.switch_cpus2 progress event, total committed:68669611, progress insts committed: 2625820, IPC: 0.262319
13802385928611: Event_283: system.switch_cpus1 progress event, total committed:68599768, progress insts committed: 2622836, IPC: 0.262021
13802385928611: Event_282: system.switch_cpus0 progress event, total committed:68633930, progress insts committed: 2631880, IPC: 0.262925
13805719261944: Event_282: system.switch_cpus0 progress event, total committed:71340364, progress insts committed: 2706434, IPC: 0.270373
13805719261944: Event_283: system.switch_cpus1 progress event, total committed:71305064, progress insts committed: 2705296, IPC: 0.270259
13805719261944: Event_284: system.switch_cpus2 progress event, total committed:71376708, progress insts committed: 2707097, IPC: 0.270439
13805719261944: Event_285: system.switch_cpus3 progress event, total committed:71334324, progress insts committed: 2711488, IPC: 0.270878
13809052595277: Event_285: system.switch_cpus3 progress event, total committed:73879343, progress insts committed: 2545019, IPC: 0.254247
13809052595277: Event_284: system.switch_cpus2 progress event, total committed:73920984, progress insts committed: 2544276, IPC: 0.254173
13809052595277: Event_283: system.switch_cpus1 progress event, total committed:73859101, progress insts committed: 2554037, IPC: 0.255148
13809052595277: Event_282: system.switch_cpus0 progress event, total committed:73893980, progress insts committed: 2553616, IPC: 0.255106
13812385928610: Event_282: system.switch_cpus0 progress event, total committed:76572033, progress insts committed: 2678053, IPC: 0.267537
13812385928610: Event_283: system.switch_cpus1 progress event, total committed:76528628, progress insts committed: 2669527, IPC: 0.266686
13812385928610: Event_284: system.switch_cpus2 progress event, total committed:76604354, progress insts committed: 2683370, IPC: 0.268069
13812385928610: Event_285: system.switch_cpus3 progress event, total committed:76560616, progress insts committed: 2681273, IPC: 0.267859
13815719261943: Event_285: system.switch_cpus3 progress event, total committed:79073632, progress insts committed: 2513016, IPC: 00.25105
13815719261943: Event_284: system.switch_cpus2 progress event, total committed:79113114, progress insts committed: 2508760, IPC: 0.250625
13815719261943: Event_283: system.switch_cpus1 progress event, total committed:79043903, progress insts committed: 2515275, IPC: 0.251276
13815719261943: Event_282: system.switch_cpus0 progress event, total committed:79083450, progress insts committed: 2511417, IPC: 0.250891
13819052595276: Event_282: system.switch_cpus0 progress event, total committed:81743183, progress insts committed: 2659733, IPC: 0.265707
13819052595276: Event_283: system.switch_cpus1 progress event, total committed:81708232, progress insts committed: 2664329, IPC: 0.266166
13819052595276: Event_284: system.switch_cpus2 progress event, total committed:81773608, progress insts committed: 2660494, IPC: 0.265783
13819052595276: Event_285: system.switch_cpus3 progress event, total committed:81735190, progress insts committed: 2661558, IPC: 00.26589
13822385928609: Event_285: system.switch_cpus3 progress event, total committed:84237285, progress insts committed: 2502095, IPC: 0.249959
13822385928609: Event_284: system.switch_cpus2 progress event, total committed:84280314, progress insts committed: 2506706, IPC: 00.25042
13822385928609: Event_283: system.switch_cpus1 progress event, total committed:84216414, progress insts committed: 2508182, IPC: 0.250567
13822385928609: Event_282: system.switch_cpus0 progress event, total committed:84247674, progress insts committed: 2504491, IPC: 0.250199
13825719261942: Event_282: system.switch_cpus0 progress event, total committed:86924128, progress insts committed: 2676454, IPC: 0.267378
13825719261942: Event_283: system.switch_cpus1 progress event, total committed:86892286, progress insts committed: 2675872, IPC: 00.26732
13825719261942: Event_284: system.switch_cpus2 progress event, total committed:86950842, progress insts committed: 2670528, IPC: 0.266786
13825719261942: Event_285: system.switch_cpus3 progress event, total committed:86912424, progress insts committed: 2675139, IPC: 0.267246
13829052595275: Event_285: system.switch_cpus3 progress event, total committed:89434193, progress insts committed: 2521769, IPC: 0.251925
13829052595275: Event_284: system.switch_cpus2 progress event, total committed:89467582, progress insts committed: 2516740, IPC: 0.251422
13829052595275: Event_283: system.switch_cpus1 progress event, total committed:89411621, progress insts committed: 2519335, IPC: 0.251682
13829052595275: Event_282: system.switch_cpus0 progress event, total committed:89441932, progress insts committed: 2517804, IPC: 0.251529
13832385928608: Event_282: system.switch_cpus0 progress event, total committed:92137120, progress insts committed: 2695188, IPC: 0.269249
13832385928608: Event_283: system.switch_cpus1 progress event, total committed:92105618, progress insts committed: 2693997, IPC: 00.26913
13832385928608: Event_284: system.switch_cpus2 progress event, total committed:92171413, progress insts committed: 2703831, IPC: 0.270113
13832385928608: Event_285: system.switch_cpus3 progress event, total committed:92129355, progress insts committed: 2695162, IPC: 0.269247
13835719261941: Event_285: system.switch_cpus3 progress event, total committed:94679102, progress insts committed: 2549747, IPC: 00.25472
13835719261941: Event_284: system.switch_cpus2 progress event, total committed:94701056, progress insts committed: 2529643, IPC: 0.252711
13835719261941: Event_283: system.switch_cpus1 progress event, total committed:94645476, progress insts committed: 2539858, IPC: 0.253732
13835719261941: Event_282: system.switch_cpus0 progress event, total committed:94680702, progress insts committed: 2543582, IPC: 0.254104
13839052595274: Event_282: system.switch_cpus0 progress event, total committed:97445696, progress insts committed: 2764994, IPC: 0.276223
13839052595274: Event_283: system.switch_cpus1 progress event, total committed:97409415, progress insts committed: 2763939, IPC: 0.276118
13839052595274: Event_284: system.switch_cpus2 progress event, total committed:97470103, progress insts committed: 2769047, IPC: 0.276628
13839052595274: Event_285: system.switch_cpus3 progress event, total committed:97444596, progress insts committed: 2765494, IPC: 0.276273
13842385928607: Event_285: system.switch_cpus3 progress event, total committed:100095781, progress insts committed: 2651185, IPC: 0.264853
13842385928607: Event_284: system.switch_cpus2 progress event, total committed:100117590, progress insts committed: 2647487, IPC: 0.264484
13842385928607: Event_283: system.switch_cpus1 progress event, total committed:100052862, progress insts committed: 2643447, IPC: 00.26408
13842385928607: Event_282: system.switch_cpus0 progress event, total committed:100098196, progress insts committed: 2652500, IPC: 0.264985
13845719261940: Event_282: system.switch_cpus0 progress event, total committed:103025548, progress insts committed: 2927352, IPC: 0.292442
13845719261940: Event_283: system.switch_cpus1 progress event, total committed:102978862, progress insts committed: 2926000, IPC: 0.292307
13845719261940: Event_284: system.switch_cpus2 progress event, total committed:103040688, progress insts committed: 2923098, IPC: 0.292017
13845719261940: Event_285: system.switch_cpus3 progress event, total committed:103020114, progress insts committed: 2924333, IPC: 0.292141
13849052595273: Event_285: system.switch_cpus3 progress event, total committed:105800856, progress insts committed: 2780742, IPC: 0.277796
13849052595273: Event_284: system.switch_cpus2 progress event, total committed:105826368, progress insts committed: 2785680, IPC: 0.278289
13849052595273: Event_283: system.switch_cpus1 progress event, total committed:105758448, progress insts committed: 2779586, IPC: 0.277681
13849052595273: Event_282: system.switch_cpus0 progress event, total committed:105814913, progress insts committed: 2789365, IPC: 0.278658
13852385928606: Event_282: system.switch_cpus0 progress event, total committed:108791850, progress insts committed: 2976937, IPC: 0.297396
13852385928606: Event_283: system.switch_cpus1 progress event, total committed:108736166, progress insts committed: 2977718, IPC: 0.297474
13852385928606: Event_284: system.switch_cpus2 progress event, total committed:108798234, progress insts committed: 2971866, IPC: 0.296889
13852385928606: Event_285: system.switch_cpus3 progress event, total committed:108778490, progress insts committed: 2977634, IPC: 0.297466
13855719261939: Event_285: system.switch_cpus3 progress event, total committed:111523442, progress insts committed: 2744952, IPC: 0.274221
13855719261939: Event_284: system.switch_cpus2 progress event, total committed:111555652, progress insts committed: 2757418, IPC: 0.275466
13855719261939: Event_283: system.switch_cpus1 progress event, total committed:111493536, progress insts committed: 2757370, IPC: 0.275461
13855719261939: Event_282: system.switch_cpus0 progress event, total committed:111543985, progress insts committed: 2752135, IPC: 0.274938
13859052595272: Event_282: system.switch_cpus0 progress event, total committed:114436141, progress insts committed: 2892156, IPC: 0.288926
13859052595272: Event_283: system.switch_cpus1 progress event, total committed:114390830, progress insts committed: 2897294, IPC: 00.28944
13859052595272: Event_284: system.switch_cpus2 progress event, total committed:114449732, progress insts committed: 2894080, IPC: 0.289119
13859052595272: Event_285: system.switch_cpus3 progress event, total committed:114427519, progress insts committed: 2904077, IPC: 0.290117
13862385928605: Event_285: system.switch_cpus3 progress event, total committed:117076534, progress insts committed: 2649015, IPC: 0.264637
13862385928605: Event_284: system.switch_cpus2 progress event, total committed:117107680, progress insts committed: 2657948, IPC: 0.265529
13862385928605: Event_283: system.switch_cpus1 progress event, total committed:117052795, progress insts committed: 2661965, IPC: 00.26593
13862385928605: Event_282: system.switch_cpus0 progress event, total committed:117093848, progress insts committed: 2657707, IPC: 0.265505
13865719261938: Event_282: system.switch_cpus0 progress event, total committed:119732836, progress insts committed: 2638988, IPC: 0.263635
13865719261938: Event_283: system.switch_cpus1 progress event, total committed:119686892, progress insts committed: 2634097, IPC: 0.263146
13865719261938: Event_284: system.switch_cpus2 progress event, total committed:119744478, progress insts committed: 2636798, IPC: 0.263416
13865719261938: Event_285: system.switch_cpus3 progress event, total committed:119721714, progress insts committed: 2645180, IPC: 0.264253
13869052595271: Event_285: system.switch_cpus3 progress event, total committed:122486998, progress insts committed: 2765284, IPC: 0.276252
13869052595271: Event_284: system.switch_cpus2 progress event, total committed:122511584, progress insts committed: 2767106, IPC: 0.276434
13869052595271: Event_283: system.switch_cpus1 progress event, total committed:122457738, progress insts committed: 2770846, IPC: 0.276808
13869052595271: Event_282: system.switch_cpus0 progress event, total committed:122495822, progress insts committed: 2762986, IPC: 0.276022
13872385928604: Event_282: system.switch_cpus0 progress event, total committed:125147975, progress insts committed: 2652153, IPC: 00.26495
13872385928604: Event_283: system.switch_cpus1 progress event, total committed:125122070, progress insts committed: 2664332, IPC: 0.266167
13872385928604: Event_284: system.switch_cpus2 progress event, total committed:125177754, progress insts committed: 2666170, IPC: 00.26635
13872385928604: Event_285: system.switch_cpus3 progress event, total committed:125137080, progress insts committed: 2650082, IPC: 0.264743
13875719261937: Event_285: system.switch_cpus3 progress event, total committed:127945723, progress insts committed: 2808643, IPC: 0.280583
13875719261937: Event_284: system.switch_cpus2 progress event, total committed:127976910, progress insts committed: 2799156, IPC: 0.279636
13875719261937: Event_283: system.switch_cpus1 progress event, total committed:127925195, progress insts committed: 2803125, IPC: 0.280032
13875719261937: Event_282: system.switch_cpus0 progress event, total committed:127948114, progress insts committed: 2800139, IPC: 0.279734
13879052595270: Event_282: system.switch_cpus0 progress event, total committed:130572106, progress insts committed: 2623992, IPC: 0.262137
13879052595270: Event_283: system.switch_cpus1 progress event, total committed:130551752, progress insts committed: 2626557, IPC: 0.262393
13879052595270: Event_284: system.switch_cpus2 progress event, total committed:130598944, progress insts committed: 2622034, IPC: 0.261941
13879052595270: Event_285: system.switch_cpus3 progress event, total committed:130571251, progress insts committed: 2625528, IPC: 00.26229
13882385928603: Event_285: system.switch_cpus3 progress event, total committed:133388112, progress insts committed: 2816861, IPC: 0.281404
13882385928603: Event_284: system.switch_cpus2 progress event, total committed:133414088, progress insts committed: 2815144, IPC: 0.281233
13882385928603: Event_283: system.switch_cpus1 progress event, total committed:133370882, progress insts committed: 2819130, IPC: 0.281631
13882385928603: Event_282: system.switch_cpus0 progress event, total committed:133393514, progress insts committed: 2821408, IPC: 0.281859
13885719261936: Event_282: system.switch_cpus0 progress event, total committed:136065652, progress insts committed: 2672138, IPC: 0.266947
13885719261936: Event_283: system.switch_cpus1 progress event, total committed:136033984, progress insts committed: 2663102, IPC: 0.266044
13885719261936: Event_284: system.switch_cpus2 progress event, total committed:136075528, progress insts committed: 2661440, IPC: 0.265878
13885719261936: Event_285: system.switch_cpus3 progress event, total committed:136052594, progress insts committed: 2664482, IPC: 0.266182
13889052595269: Event_285: system.switch_cpus3 progress event, total committed:138881013, progress insts committed: 2828419, IPC: 0.282559
13889052595269: Event_284: system.switch_cpus2 progress event, total committed:138902407, progress insts committed: 2826879, IPC: 0.282405
13889052595269: Event_283: system.switch_cpus1 progress event, total committed:138860589, progress insts committed: 2826605, IPC: 0.282378
13889052595269: Event_282: system.switch_cpus0 progress event, total committed:138890640, progress insts committed: 2824988, IPC: 0.282216
13892385928602: Event_282: system.switch_cpus0 progress event, total committed:141565140, progress insts committed: 2674500, IPC: 0.267183
13892385928602: Event_283: system.switch_cpus1 progress event, total committed:141530590, progress insts committed: 2670001, IPC: 0.266733
13892385928602: Event_284: system.switch_cpus2 progress event, total committed:141574588, progress insts committed: 2672181, IPC: 0.266951
13892385928602: Event_285: system.switch_cpus3 progress event, total committed:141554790, progress insts committed: 2673777, IPC: 00.26711
13895719261935: Event_285: system.switch_cpus3 progress event, total committed:144415495, progress insts committed: 2860705, IPC: 0.285784
13895719261935: Event_284: system.switch_cpus2 progress event, total committed:144440613, progress insts committed: 2866025, IPC: 0.286316
13895719261935: Event_283: system.switch_cpus1 progress event, total committed:144393673, progress insts committed: 2863083, IPC: 0.286022
13895719261935: Event_282: system.switch_cpus0 progress event, total committed:144424816, progress insts committed: 2859676, IPC: 0.285682
13899052595268: Event_282: system.switch_cpus0 progress event, total committed:147165452, progress insts committed: 2740636, IPC: 00.27379
13899052595268: Event_283: system.switch_cpus1 progress event, total committed:147132468, progress insts committed: 2738795, IPC: 0.273606
13899052595268: Event_284: system.switch_cpus2 progress event, total committed:147171950, progress insts committed: 2731337, IPC: 0.272861
13899052595268: Event_285: system.switch_cpus3 progress event, total committed:147162792, progress insts committed: 2747297, IPC: 0.274455
13902385928601: Event_285: system.switch_cpus3 progress event, total committed:150055517, progress insts committed: 2892725, IPC: 0.288983
13902385928601: Event_284: system.switch_cpus2 progress event, total committed:150069108, progress insts committed: 2897158, IPC: 0.289426
13902385928601: Event_283: system.switch_cpus1 progress event, total committed:150032818, progress insts committed: 2900350, IPC: 0.289745
13902385928601: Event_282: system.switch_cpus0 progress event, total committed:150058468, progress insts committed: 2893016, IPC: 0.289012
13905719261934: Event_282: system.switch_cpus0 progress event, total committed:152719378, progress insts committed: 2660910, IPC: 0.265825
13905719261934: Event_283: system.switch_cpus1 progress event, total committed:152685270, progress insts committed: 2652452, IPC: 00.26498
13905719261934: Event_284: system.switch_cpus2 progress event, total committed:152727425, progress insts committed: 2658317, IPC: 0.265566
13905719261934: Event_285: system.switch_cpus3 progress event, total committed:152719268, progress insts committed: 2663751, IPC: 0.266109
13909052595267: Event_285: system.switch_cpus3 progress event, total committed:155566758, progress insts committed: 2847490, IPC: 0.284464
13909052595267: Event_284: system.switch_cpus2 progress event, total committed:155580058, progress insts committed: 2852633, IPC: 0.284978
13909052595267: Event_283: system.switch_cpus1 progress event, total committed:155533905, progress insts committed: 2848635, IPC: 0.284579
13909052595267: Event_282: system.switch_cpus0 progress event, total committed:155567290, progress insts committed: 2847912, IPC: 0.284506
13912385928600: Event_282: system.switch_cpus0 progress event, total committed:158283699, progress insts committed: 2716409, IPC: 0.271369
13912385928600: Event_283: system.switch_cpus1 progress event, total committed:158258336, progress insts committed: 2724431, IPC: 0.272171
13912385928600: Event_284: system.switch_cpus2 progress event, total committed:158302851, progress insts committed: 2722793, IPC: 0.272007
13912385928600: Event_285: system.switch_cpus3 progress event, total committed:158282922, progress insts committed: 2716164, IPC: 0.271345
13915719261933: Event_285: system.switch_cpus3 progress event, total committed:161013692, progress insts committed: 2730770, IPC: 0.272804
13915719261933: Event_284: system.switch_cpus2 progress event, total committed:161028346, progress insts committed: 2725495, IPC: 0.272277
13915719261933: Event_283: system.switch_cpus1 progress event, total committed:160981948, progress insts committed: 2723612, IPC: 0.272089
13915719261933: Event_282: system.switch_cpus0 progress event, total committed:161011322, progress insts committed: 2727623, IPC: 00.27249
13919052595266: Event_282: system.switch_cpus0 progress event, total committed:163871453, progress insts committed: 2860131, IPC: 0.285727
13919052595266: Event_283: system.switch_cpus1 progress event, total committed:163843994, progress insts committed: 2862046, IPC: 0.285918
13919052595266: Event_284: system.switch_cpus2 progress event, total committed:163894040, progress insts committed: 2865694, IPC: 0.286283
13919052595266: Event_285: system.switch_cpus3 progress event, total committed:163877866, progress insts committed: 2864174, IPC: 0.286131
13922385928599: Event_285: system.switch_cpus3 progress event, total committed:166503856, progress insts committed: 2625990, IPC: 0.262336
13922385928599: Event_284: system.switch_cpus2 progress event, total committed:166514537, progress insts committed: 2620497, IPC: 0.261788
13922385928599: Event_283: system.switch_cpus1 progress event, total committed:166464398, progress insts committed: 2620404, IPC: 0.261778
13922385928599: Event_282: system.switch_cpus0 progress event, total committed:166494494, progress insts committed: 2623041, IPC: 0.262042
13925719261932: Event_282: system.switch_cpus0 progress event, total committed:168892826, progress insts committed: 2398332, IPC: 0.239593
13925719261932: Event_283: system.switch_cpus1 progress event, total committed:168872662, progress insts committed: 2408264, IPC: 0.240586
13925719261932: Event_284: system.switch_cpus2 progress event, total committed:168924921, progress insts committed: 2410384, IPC: 0.240797
13925719261932: Event_285: system.switch_cpus3 progress event, total committed:168903314, progress insts committed: 2399458, IPC: 0.239706
13929052595265: Event_285: system.switch_cpus3 progress event, total committed:170363064, progress insts committed: 1459750, IPC: 0.145829
13929052595265: Event_284: system.switch_cpus2 progress event, total committed:170363321, progress insts committed: 1438400, IPC: 0.143696
13929052595265: Event_283: system.switch_cpus1 progress event, total committed:170362574, progress insts committed: 1489912, IPC: 0.148842
13929052595265: Event_282: system.switch_cpus0 progress event, total committed:170362916, progress insts committed: 1470090, IPC: 0.146862
13932385928598: Event_282: system.switch_cpus0 progress event, total committed:170539324, progress insts committed: 176408, IPC: 0.0176232
13932385928598: Event_283: system.switch_cpus1 progress event, total committed:170538950, progress insts committed: 176376, IPC: 00.01762
13932385928598: Event_284: system.switch_cpus2 progress event, total committed:170539724, progress insts committed: 176403, IPC: 0.0176227
13932385928598: Event_285: system.switch_cpus3 progress event, total committed:170539487, progress insts committed: 176423, IPC: 0.0176247
13935719261931: Event_285: system.switch_cpus3 progress event, total committed:170715740, progress insts committed: 176253, IPC: 0.0176077
13935719261931: Event_284: system.switch_cpus2 progress event, total committed:170716000, progress insts committed: 176276, IPC: 00.01761
13935719261931: Event_283: system.switch_cpus1 progress event, total committed:170715226, progress insts committed: 176276, IPC: 00.01761
13935719261931: Event_282: system.switch_cpus0 progress event, total committed:170715575, progress insts committed: 176251, IPC: 0.0176075
13939052595264: Event_282: system.switch_cpus0 progress event, total committed:170886392, progress insts committed: 170817, IPC: 0.0170646
13939052595264: Event_283: system.switch_cpus1 progress event, total committed:170886033, progress insts committed: 170807, IPC: 0.0170636
13939052595264: Event_284: system.switch_cpus2 progress event, total committed:170886804, progress insts committed: 170804, IPC: 0.0170633
13939052595264: Event_285: system.switch_cpus3 progress event, total committed:170886519, progress insts committed: 170779, IPC: 0.0170608
13942385928597: Event_285: system.switch_cpus3 progress event, total committed:171062564, progress insts committed: 176045, IPC: 0.0175869
13942385928597: Event_284: system.switch_cpus2 progress event, total committed:171062792, progress insts committed: 175988, IPC: 0.0175812
13942385928597: Event_283: system.switch_cpus1 progress event, total committed:171062006, progress insts committed: 175973, IPC: 0.0175797
13942385928597: Event_282: system.switch_cpus0 progress event, total committed:171062350, progress insts committed: 175958, IPC: 0.0175782
13945719261930: Event_282: system.switch_cpus0 progress event, total committed:171249996, progress insts committed: 187646, IPC: 0.0187458
13945719261930: Event_283: system.switch_cpus1 progress event, total committed:171249603, progress insts committed: 187597, IPC: 0.0187409
13945719261930: Event_284: system.switch_cpus2 progress event, total committed:171250401, progress insts committed: 187609, IPC: 0.0187421
13945719261930: Event_285: system.switch_cpus3 progress event, total committed:171250166, progress insts committed: 187602, IPC: 0.0187414
13949052595263: Event_285: system.switch_cpus3 progress event, total committed:171435399, progress insts committed: 185233, IPC: 0.0185048
13949052595263: Event_284: system.switch_cpus2 progress event, total committed:171435627, progress insts committed: 185226, IPC: 0.0185041
13949052595263: Event_283: system.switch_cpus1 progress event, total committed:171434886, progress insts committed: 185283, IPC: 0.0185098
13949052595263: Event_282: system.switch_cpus0 progress event, total committed:171435278, progress insts committed: 185282, IPC: 0.0185097
13952385928596: Event_282: system.switch_cpus0 progress event, total committed:173931467, progress insts committed: 2496189, IPC: 0.249369
13952385928596: Event_283: system.switch_cpus1 progress event, total committed:173912336, progress insts committed: 2477450, IPC: 0.247497
13952385928596: Event_284: system.switch_cpus2 progress event, total committed:173964064, progress insts committed: 2528437, IPC: 0.252591
13952385928596: Event_285: system.switch_cpus3 progress event, total committed:173949704, progress insts committed: 2514305, IPC: 0.251179
13955719261929: Event_285: system.switch_cpus3 progress event, total committed:176431964, progress insts committed: 2482260, IPC: 0.247978
13955719261929: Event_284: system.switch_cpus2 progress event, total committed:176446974, progress insts committed: 2482910, IPC: 0.248043
13955719261929: Event_283: system.switch_cpus1 progress event, total committed:176390886, progress insts committed: 2478550, IPC: 0.247607
13955719261929: Event_282: system.switch_cpus0 progress event, total committed:176416004, progress insts committed: 2484537, IPC: 0.248205
13959052595262: Event_282: system.switch_cpus0 progress event, total committed:179342246, progress insts committed: 2926242, IPC: 0.292332
13959052595262: Event_283: system.switch_cpus1 progress event, total committed:179317418, progress insts committed: 2926532, IPC: 0.292361
13959052595262: Event_284: system.switch_cpus2 progress event, total committed:179374570, progress insts committed: 2927596, IPC: 0.292467
13959052595262: Event_285: system.switch_cpus3 progress event, total committed:179358741, progress insts committed: 2926777, IPC: 0.292385
13962385928595: Event_285: system.switch_cpus3 progress event, total committed:182100388, progress insts committed: 2741647, IPC: 0.273891
13962385928595: Event_284: system.switch_cpus2 progress event, total committed:182121303, progress insts committed: 2746733, IPC: 0.274399
13962385928595: Event_283: system.switch_cpus1 progress event, total committed:182053380, progress insts committed: 2735962, IPC: 0.273323
13962385928595: Event_282: system.switch_cpus0 progress event, total committed:182088747, progress insts committed: 2746501, IPC: 0.274375
13965719261928: Event_282: system.switch_cpus0 progress event, total committed:185021408, progress insts committed: 2932661, IPC: 0.292973
13965719261928: Event_283: system.switch_cpus1 progress event, total committed:184985477, progress insts committed: 2932097, IPC: 0.292916
13965719261928: Event_284: system.switch_cpus2 progress event, total committed:185054212, progress insts committed: 2932909, IPC: 0.292998
13965719261928: Event_285: system.switch_cpus3 progress event, total committed:185030566, progress insts committed: 2930178, IPC: 0.292725
13969052595261: Event_285: system.switch_cpus3 progress event, total committed:187773575, progress insts committed: 2743009, IPC: 0.274027
13969052595261: Event_284: system.switch_cpus2 progress event, total committed:187788758, progress insts committed: 2734546, IPC: 0.273181
13969052595261: Event_283: system.switch_cpus1 progress event, total committed:187726400, progress insts committed: 2740923, IPC: 0.273818
13969052595261: Event_282: system.switch_cpus0 progress event, total committed:187754925, progress insts committed: 2733517, IPC: 0.273078
13972385928594: Event_282: system.switch_cpus0 progress event, total committed:190675808, progress insts committed: 2920883, IPC: 0.291796
13972385928594: Event_283: system.switch_cpus1 progress event, total committed:190636087, progress insts committed: 2909687, IPC: 0.290678
13972385928594: Event_284: system.switch_cpus2 progress event, total committed:190698303, progress insts committed: 2909545, IPC: 0.290664
13972385928594: Event_285: system.switch_cpus3 progress event, total committed:190682555, progress insts committed: 2908980, IPC: 0.290607
13975719261927: Event_285: system.switch_cpus3 progress event, total committed:193385056, progress insts committed: 2702501, IPC: 00.26998
13975719261927: Event_284: system.switch_cpus2 progress event, total committed:193391440, progress insts committed: 2693137, IPC: 0.269044
13975719261927: Event_283: system.switch_cpus1 progress event, total committed:193328018, progress insts committed: 2691931, IPC: 0.268924
13975719261927: Event_282: system.switch_cpus0 progress event, total committed:193359239, progress insts committed: 2683431, IPC: 0.268075
13979052595260: Event_282: system.switch_cpus0 progress event, total committed:196106022, progress insts committed: 2746783, IPC: 0.274404
13979052595260: Event_283: system.switch_cpus1 progress event, total committed:196072682, progress insts committed: 2744664, IPC: 0.274192
13979052595260: Event_284: system.switch_cpus2 progress event, total committed:196129302, progress insts committed: 2737862, IPC: 0.273512
13979052595260: Event_285: system.switch_cpus3 progress event, total committed:196126284, progress insts committed: 2741228, IPC: 0.273849
13982385928593: Event_285: system.switch_cpus3 progress event, total committed:198697823, progress insts committed: 2571539, IPC: 0.256897
13982385928593: Event_284: system.switch_cpus2 progress event, total committed:198698824, progress insts committed: 2569522, IPC: 0.256695
13982385928593: Event_283: system.switch_cpus1 progress event, total committed:198628904, progress insts committed: 2556222, IPC: 0.255367
13982385928593: Event_282: system.switch_cpus0 progress event, total committed:198662002, progress insts committed: 2555980, IPC: 0.255342
13985719261926: Event_282: system.switch_cpus0 progress event, total committed:201374214, progress insts committed: 2712212, IPC: 00.27095
13985719261926: Event_283: system.switch_cpus1 progress event, total committed:201340584, progress insts committed: 2711680, IPC: 0.270897
13985719261926: Event_284: system.switch_cpus2 progress event, total committed:201415026, progress insts committed: 2716202, IPC: 0.271349
13985719261926: Event_285: system.switch_cpus3 progress event, total committed:201414443, progress insts committed: 2716620, IPC: 00.27139
13989052595259: Event_285: system.switch_cpus3 progress event, total committed:203952248, progress insts committed: 2537805, IPC: 0.253527
13989052595259: Event_284: system.switch_cpus2 progress event, total committed:203955153, progress insts committed: 2540127, IPC: 0.253759
13989052595259: Event_283: system.switch_cpus1 progress event, total committed:203877499, progress insts committed: 2536915, IPC: 0.253438
13989052595259: Event_282: system.switch_cpus0 progress event, total committed:203911702, progress insts committed: 2537488, IPC: 0.253495
13992385928592: Event_282: system.switch_cpus0 progress event, total committed:206600216, progress insts committed: 2688514, IPC: 0.268583
13992385928592: Event_283: system.switch_cpus1 progress event, total committed:206558077, progress insts committed: 2680578, IPC: 00.26779
13992385928592: Event_284: system.switch_cpus2 progress event, total committed:206650718, progress insts committed: 2695565, IPC: 0.269287
13992385928592: Event_285: system.switch_cpus3 progress event, total committed:206650716, progress insts committed: 2698468, IPC: 0.269577
13995719261925: Event_285: system.switch_cpus3 progress event, total committed:209334226, progress insts committed: 2683510, IPC: 0.268083
13995719261925: Event_284: system.switch_cpus2 progress event, total committed:209333162, progress insts committed: 2682444, IPC: 0.267976
13995719261925: Event_283: system.switch_cpus1 progress event, total committed:209243506, progress insts committed: 2685429, IPC: 0.268274
13995719261925: Event_282: system.switch_cpus0 progress event, total committed:209292084, progress insts committed: 2691868, IPC: 0.268918
13999052595258: Event_282: system.switch_cpus0 progress event, total committed:211996962, progress insts committed: 2704878, IPC: 0.270217
13999052595258: Event_283: system.switch_cpus1 progress event, total committed:211948146, progress insts committed: 2704640, IPC: 0.270194
13999052595258: Event_284: system.switch_cpus2 progress event, total committed:212037221, progress insts committed: 2704059, IPC: 0.270135
13999052595258: Event_285: system.switch_cpus3 progress event, total committed:212042828, progress insts committed: 2708602, IPC: 0.270589
14002385928591: Event_285: system.switch_cpus3 progress event, total committed:214975212, progress insts committed: 2932384, IPC: 0.292945
14002385928591: Event_284: system.switch_cpus2 progress event, total committed:214969360, progress insts committed: 2932139, IPC: 0.292921
14002385928591: Event_283: system.switch_cpus1 progress event, total committed:214877384, progress insts committed: 2929238, IPC: 0.292631
14002385928591: Event_282: system.switch_cpus0 progress event, total committed:214929523, progress insts committed: 2932561, IPC: 0.292963
14005719261924: Event_282: system.switch_cpus0 progress event, total committed:217684961, progress insts committed: 2755438, IPC: 0.275268
14005719261924: Event_283: system.switch_cpus1 progress event, total committed:217631146, progress insts committed: 2753762, IPC: 0.275101
14005719261924: Event_284: system.switch_cpus2 progress event, total committed:217720218, progress insts committed: 2750858, IPC: 0.274811
14005719261924: Event_285: system.switch_cpus3 progress event, total committed:217723655, progress insts committed: 2748443, IPC: 0.274569
14009052595257: Event_285: system.switch_cpus3 progress event, total committed:220574729, progress insts committed: 2851074, IPC: 0.284822
14009052595257: Event_284: system.switch_cpus2 progress event, total committed:220573674, progress insts committed: 2853456, IPC: 00.28506
14009052595257: Event_283: system.switch_cpus1 progress event, total committed:220478153, progress insts committed: 2847007, IPC: 0.284416
14009052595257: Event_282: system.switch_cpus0 progress event, total committed:220529691, progress insts committed: 2844730, IPC: 0.284189
14012385928590: Event_282: system.switch_cpus0 progress event, total committed:223289524, progress insts committed: 2759833, IPC: 0.275707
14012385928590: Event_283: system.switch_cpus1 progress event, total committed:223275836, progress insts committed: 2797683, IPC: 0.279489
14012385928590: Event_284: system.switch_cpus2 progress event, total committed:223319879, progress insts committed: 2746205, IPC: 0.274346
14012385928590: Event_285: system.switch_cpus3 progress event, total committed:223322861, progress insts committed: 2748132, IPC: 0.274538
14015719261923: Event_285: system.switch_cpus3 progress event, total committed:226061210, progress insts committed: 2738349, IPC: 0.273561
14015719261923: Event_284: system.switch_cpus2 progress event, total committed:226055062, progress insts committed: 2735183, IPC: 0.273245
14015719261923: Event_283: system.switch_cpus1 progress event, total committed:225953467, progress insts committed: 2677631, IPC: 0.267495
14015719261923: Event_282: system.switch_cpus0 progress event, total committed:225987629, progress insts committed: 2698105, IPC: 0.269541
14019052595256: Event_282: system.switch_cpus0 progress event, total committed:228571605, progress insts committed: 2583976, IPC: 0.258139
14019052595256: Event_283: system.switch_cpus1 progress event, total committed:228569235, progress insts committed: 2615768, IPC: 0.261315
14019052595256: Event_284: system.switch_cpus2 progress event, total committed:228577890, progress insts committed: 2522828, IPC: 0.252031
14019052595256: Event_285: system.switch_cpus3 progress event, total committed:228588807, progress insts committed: 2527597, IPC: 0.252507
14022385928589: Event_285: system.switch_cpus3 progress event, total committed:231347928, progress insts committed: 2759121, IPC: 0.275636
14022385928589: Event_284: system.switch_cpus2 progress event, total committed:231343137, progress insts committed: 2765247, IPC: 0.276248
14022385928589: Event_283: system.switch_cpus1 progress event, total committed:231227755, progress insts committed: 2658520, IPC: 0.265586
14022385928589: Event_282: system.switch_cpus0 progress event, total committed:231253405, progress insts committed: 2681800, IPC: 0.267912
14025719261922: Event_282: system.switch_cpus0 progress event, total committed:233646264, progress insts committed: 2392859, IPC: 0.239047
14025719261922: Event_283: system.switch_cpus1 progress event, total committed:233636448, progress insts committed: 2408693, IPC: 0.240628
14025719261922: Event_284: system.switch_cpus2 progress event, total committed:233658444, progress insts committed: 2315307, IPC: 0.231299
14025719261922: Event_285: system.switch_cpus3 progress event, total committed:233658507, progress insts committed: 2310579, IPC: 0.230827
14029052595255: Event_285: system.switch_cpus3 progress event, total committed:236509560, progress insts committed: 2851053, IPC: 00.28482
14029052595255: Event_284: system.switch_cpus2 progress event, total committed:236504530, progress insts committed: 2846086, IPC: 0.284324
14029052595255: Event_283: system.switch_cpus1 progress event, total committed:236377040, progress insts committed: 2740592, IPC: 0.273785
14029052595255: Event_282: system.switch_cpus0 progress event, total committed:236388858, progress insts committed: 2742594, IPC: 0.273985
14032385928588: Event_282: system.switch_cpus0 progress event, total committed:238732400, progress insts committed: 2343542, IPC: 00.23412
14032385928588: Event_283: system.switch_cpus1 progress event, total committed:238732400, progress insts committed: 2355360, IPC: 000.2353
14032385928588: Event_284: system.switch_cpus2 progress event, total committed:238769026, progress insts committed: 2264496, IPC: 0.226223
14032385928588: Event_285: system.switch_cpus3 progress event, total committed:238768494, progress insts committed: 2258934, IPC: 0.225668
14035719261921: Event_285: system.switch_cpus3 progress event, total committed:241599489, progress insts committed: 2830995, IPC: 0.282816
14035719261921: Event_284: system.switch_cpus2 progress event, total committed:241601088, progress insts committed: 2832062, IPC: 0.282923
14035719261921: Event_283: system.switch_cpus1 progress event, total committed:241467615, progress insts committed: 2735215, IPC: 0.273248
14035719261921: Event_282: system.switch_cpus0 progress event, total committed:241464143, progress insts committed: 2731743, IPC: 0.272901
14039052595254: Event_282: system.switch_cpus0 progress event, total committed:243646739, progress insts committed: 2182596, IPC: 0.218041
14039052595254: Event_283: system.switch_cpus1 progress event, total committed:243644633, progress insts committed: 2177018, IPC: 0.217484
14039052595254: Event_284: system.switch_cpus2 progress event, total committed:243666428, progress insts committed: 2065340, IPC: 0.206327
14039052595254: Event_285: system.switch_cpus3 progress event, total committed:243672532, progress insts committed: 2073043, IPC: 0.207097
14042385928587: Event_285: system.switch_cpus3 progress event, total committed:246566271, progress insts committed: 2893739, IPC: 0.289085
14042385928587: Event_284: system.switch_cpus2 progress event, total committed:246558266, progress insts committed: 2891838, IPC: 0.288895
14042385928587: Event_283: system.switch_cpus1 progress event, total committed:246438051, progress insts committed: 2793418, IPC: 0.279062
14042385928587: Event_282: system.switch_cpus0 progress event, total committed:246438870, progress insts committed: 2792131, IPC: 0.278934
14045719261920: Event_282: system.switch_cpus0 progress event, total committed:248525127, progress insts committed: 2086257, IPC: 0.208417
14045719261920: Event_283: system.switch_cpus1 progress event, total committed:248525369, progress insts committed: 2087318, IPC: 0.208523
14045719261920: Event_284: system.switch_cpus2 progress event, total committed:248553874, progress insts committed: 1995608, IPC: 0.199361
14045719261920: Event_285: system.switch_cpus3 progress event, total committed:248555712, progress insts committed: 1989441, IPC: 0.198745
14049052595253: Event_285: system.switch_cpus3 progress event, total committed:251417742, progress insts committed: 2862030, IPC: 0.285917
14049052595253: Event_284: system.switch_cpus2 progress event, total committed:251416965, progress insts committed: 2863091, IPC: 0.286023
14049052595253: Event_283: system.switch_cpus1 progress event, total committed:251299165, progress insts committed: 2773796, IPC: 0.277102
14049052595253: Event_282: system.switch_cpus0 progress event, total committed:251298346, progress insts committed: 2773219, IPC: 0.277045
14052385928586: Event_282: system.switch_cpus0 progress event, total committed:253291541, progress insts committed: 1993195, IPC: 00.19912
14052385928586: Event_283: system.switch_cpus1 progress event, total committed:253296616, progress insts committed: 1997451, IPC: 0.199545
14052385928586: Event_284: system.switch_cpus2 progress event, total committed:253342201, progress insts committed: 1925236, IPC: 0.192331
14052385928586: Event_285: system.switch_cpus3 progress event, total committed:253336359, progress insts committed: 1918617, IPC: 00.19167
14055719261919: Event_285: system.switch_cpus3 progress event, total committed:256151774, progress insts committed: 2815415, IPC: 00.28126
14055719261919: Event_284: system.switch_cpus2 progress event, total committed:256151774, progress insts committed: 2809573, IPC: 0.280676
14055719261919: Event_283: system.switch_cpus1 progress event, total committed:256047022, progress insts committed: 2750406, IPC: 0.274766
14055719261919: Event_282: system.switch_cpus0 progress event, total committed:256046431, progress insts committed: 2754890, IPC: 0.275214
14059052595252: Event_282: system.switch_cpus0 progress event, total committed:257972495, progress insts committed: 1926064, IPC: 0.192414
14059052595252: Event_283: system.switch_cpus1 progress event, total committed:257972497, progress insts committed: 1925475, IPC: 0.192355
14059052595252: Event_284: system.switch_cpus2 progress event, total committed:258008730, progress insts committed: 1856956, IPC: 00.18551
14059052595252: Event_285: system.switch_cpus3 progress event, total committed:258008979, progress insts committed: 1857205, IPC: 0.185535
14062385928585: Event_285: system.switch_cpus3 progress event, total committed:260840485, progress insts committed: 2831506, IPC: 0.282867
14062385928585: Event_284: system.switch_cpus2 progress event, total committed:260840499, progress insts committed: 2831769, IPC: 0.282894
14062385928585: Event_283: system.switch_cpus1 progress event, total committed:260732492, progress insts committed: 2759995, IPC: 0.275724
14062385928585: Event_282: system.switch_cpus0 progress event, total committed:260726395, progress insts committed: 2753900, IPC: 0.275115
14065719261918: Event_282: system.switch_cpus0 progress event, total committed:262638634, progress insts committed: 1912239, IPC: 0.191033
14065719261918: Event_283: system.switch_cpus1 progress event, total committed:262638669, progress insts committed: 1906177, IPC: 0.190427
14065719261918: Event_284: system.switch_cpus2 progress event, total committed:262667625, progress insts committed: 1827126, IPC: 00.18253
14065719261918: Event_285: system.switch_cpus3 progress event, total committed:262663382, progress insts committed: 1822897, IPC: 0.182107
14069052595251: Event_285: system.switch_cpus3 progress event, total committed:265465970, progress insts committed: 2802588, IPC: 0.279979
14069052595251: Event_284: system.switch_cpus2 progress event, total committed:265466876, progress insts committed: 2799251, IPC: 0.279645
14069052595251: Event_283: system.switch_cpus1 progress event, total committed:265326086, progress insts committed: 2687417, IPC: 0.268473
14069052595251: Event_282: system.switch_cpus0 progress event, total committed:265327388, progress insts committed: 2688754, IPC: 0.268607
14072385928584: Event_282: system.switch_cpus0 progress event, total committed:267228017, progress insts committed: 1900629, IPC: 0.189873
14072385928584: Event_283: system.switch_cpus1 progress event, total committed:267228076, progress insts committed: 1901990, IPC: 0.190009
14072385928584: Event_284: system.switch_cpus2 progress event, total committed:267245428, progress insts committed: 1778552, IPC: 0.177677
14072385928584: Event_285: system.switch_cpus3 progress event, total committed:267242474, progress insts committed: 1776504, IPC: 0.177473
14075719261917: Event_285: system.switch_cpus3 progress event, total committed:270043100, progress insts committed: 2800626, IPC: 0.279783
14075719261917: Event_284: system.switch_cpus2 progress event, total committed:270043387, progress insts committed: 2797959, IPC: 0.279516
14075719261917: Event_283: system.switch_cpus1 progress event, total committed:269904970, progress insts committed: 2676894, IPC: 0.267422
14075719261917: Event_282: system.switch_cpus0 progress event, total committed:269897549, progress insts committed: 2669532, IPC: 0.266686
14079052595250: Event_282: system.switch_cpus0 progress event, total committed:271805643, progress insts committed: 1908094, IPC: 0.190619
14079052595250: Event_283: system.switch_cpus1 progress event, total committed:271805928, progress insts committed: 1900958, IPC: 0.189906
14079052595250: Event_284: system.switch_cpus2 progress event, total committed:271827512, progress insts committed: 1784125, IPC: 0.178234
14079052595250: Event_285: system.switch_cpus3 progress event, total committed:271827461, progress insts committed: 1784361, IPC: 0.178258
14082385928583: Event_285: system.switch_cpus3 progress event, total committed:274564874, progress insts committed: 2737413, IPC: 0.273468
14082385928583: Event_284: system.switch_cpus2 progress event, total committed:274570726, progress insts committed: 2743214, IPC: 0.274047
14082385928583: Event_283: system.switch_cpus1 progress event, total committed:274447851, progress insts committed: 2641923, IPC: 0.263928
14082385928583: Event_282: system.switch_cpus0 progress event, total committed:274446276, progress insts committed: 2640633, IPC: 0.263799
Exiting @ tick 14083301400201 because a thread reached the max instruction count
