Command line:
./runscript_pride.sh deepsjeng AE.BASELINE.4C 4 2017
Global frequency set at 1000000000000 ticks per second
DRAM config: RowsPerBank: 65536, BanksPerRank: 32, RanksPerChannel: 1
warn: Sockets disabled, not accepting gdb connections
warn: CoherentXBar system.cpu0.mmucache.mmubus has no snooping ports attached!
warn: CoherentXBar system.cpu1.mmucache.mmubus has no snooping ports attached!
warn: CoherentXBar system.cpu2.mmucache.mmubus has no snooping ports attached!
warn: CoherentXBar system.cpu3.mmucache.mmubus has no snooping ports attached!
warn: Checkpoints for file descriptors currently do not work.
warn: Checkpoints for file descriptors currently do not work.
warn: Checkpoints for file descriptors currently do not work.
warn: Checkpoints for file descriptors currently do not work.
gem5 Simulator System.  http://gem5.org
gem5 is copyrighted software; use the --copyright option for details.

gem5 version 20.1.0.5
gem5 compiled Jul 12 2024 12:42:38
gem5 started Jul 17 2024 12:52:00
gem5 executing on a07dda8b130c, pid 86779
command line: /home/user/PrIDE/performance/gem5/build/X86/gem5.opt --outdir=/home/user/PrIDE/performance/gem5/stats/pride_multiprogram_16GBmem_250Mn.SPEC2017.C4/AE.BASELINE.4C/deepsjeng /home/user/PrIDE/performance/gem5/configs/example/se_rq_spec_config_multicore.py --redirects /lib64=/home/utils/gcc-6.2.0/lib64 --benchmark=deepsjeng --benchmark_stdout=/home/user/PrIDE/performance/gem5/stats/pride_multiprogram_16GBmem_250Mn.SPEC2017.C4/AE.BASELINE.4C/deepsjeng/deepsjeng.out --benchmark_stderr=/home/user/PrIDE/performance/gem5/stats/pride_multiprogram_16GBmem_250Mn.SPEC2017.C4/AE.BASELINE.4C/deepsjeng/deepsjeng.err --spec-version=2017 --num-cpus=4 --mem-size=16GB --mem-type=DDR5_2400_32x4 --mem-ranks=1 --checkpoint-dir=/home/user/PrIDE/performance/gem5/cpts/multiprogram_16GBmem_25Bn.SPEC2017.C4/deepsjeng-1-ref-x86 --checkpoint-restore=25000000000 --at-instruction --cpu-type DerivO3CPU --caches --l2cache --l1d_size=32kB --l1i_size=32kB --l2_size=256kB --l1d_assoc=8 --l1i_assoc=8 --l2_assoc=16 --maxinsts=250000000 --prog-interval=300Hz

info: Standard input is not a terminal, disabling listeners.
Benchmark- 0   deepsjeng
Selected benchmark
--> deepsjeng
CMD: ['/opt/spec2017/benchspec/CPU/531.deepsjeng_r/run/run_base_refrate_gem5_se-m64.0000/deepsjeng_r_base.gem5_se-m64', '/opt/spec2017/benchspec/CPU/531.deepsjeng_r/run/run_base_refrate_gem5_se-m64.0000/ref.txt']
CWD: /opt/spec2017/benchspec/CPU/531.deepsjeng_r/run/run_base_refrate_gem5_se-m64.0000/
Process stdout file: /home/user/PrIDE/performance/gem5/stats/pride_multiprogram_16GBmem_250Mn.SPEC2017.C4/AE.BASELINE.4C/deepsjeng/deepsjeng.out_0
Process stderr file: /home/user/PrIDE/performance/gem5/stats/pride_multiprogram_16GBmem_250Mn.SPEC2017.C4/AE.BASELINE.4C/deepsjeng/deepsjeng.err_0
Benchmark- 1   deepsjeng
Selected benchmark
--> deepsjeng
CMD: ['/opt/spec2017/benchspec/CPU/531.deepsjeng_r/run/run_base_refrate_gem5_se-m64.0000/deepsjeng_r_base.gem5_se-m64', '/opt/spec2017/benchspec/CPU/531.deepsjeng_r/run/run_base_refrate_gem5_se-m64.0000/ref.txt']
CWD: /opt/spec2017/benchspec/CPU/531.deepsjeng_r/run/run_base_refrate_gem5_se-m64.0000/
Process stdout file: /home/user/PrIDE/performance/gem5/stats/pride_multiprogram_16GBmem_250Mn.SPEC2017.C4/AE.BASELINE.4C/deepsjeng/deepsjeng.out_1
Process stderr file: /home/user/PrIDE/performance/gem5/stats/pride_multiprogram_16GBmem_250Mn.SPEC2017.C4/AE.BASELINE.4C/deepsjeng/deepsjeng.err_1
Benchmark- 2   deepsjeng
Selected benchmark
--> deepsjeng
CMD: ['/opt/spec2017/benchspec/CPU/531.deepsjeng_r/run/run_base_refrate_gem5_se-m64.0000/deepsjeng_r_base.gem5_se-m64', '/opt/spec2017/benchspec/CPU/531.deepsjeng_r/run/run_base_refrate_gem5_se-m64.0000/ref.txt']
CWD: /opt/spec2017/benchspec/CPU/531.deepsjeng_r/run/run_base_refrate_gem5_se-m64.0000/
Process stdout file: /home/user/PrIDE/performance/gem5/stats/pride_multiprogram_16GBmem_250Mn.SPEC2017.C4/AE.BASELINE.4C/deepsjeng/deepsjeng.out_2
Process stderr file: /home/user/PrIDE/performance/gem5/stats/pride_multiprogram_16GBmem_250Mn.SPEC2017.C4/AE.BASELINE.4C/deepsjeng/deepsjeng.err_2
Benchmark- 3   deepsjeng
Selected benchmark
--> deepsjeng
CMD: ['/opt/spec2017/benchspec/CPU/531.deepsjeng_r/run/run_base_refrate_gem5_se-m64.0000/deepsjeng_r_base.gem5_se-m64', '/opt/spec2017/benchspec/CPU/531.deepsjeng_r/run/run_base_refrate_gem5_se-m64.0000/ref.txt']
CWD: /opt/spec2017/benchspec/CPU/531.deepsjeng_r/run/run_base_refrate_gem5_se-m64.0000/
Process stdout file: /home/user/PrIDE/performance/gem5/stats/pride_multiprogram_16GBmem_250Mn.SPEC2017.C4/AE.BASELINE.4C/deepsjeng/deepsjeng.out_3
Process stderr file: /home/user/PrIDE/performance/gem5/stats/pride_multiprogram_16GBmem_250Mn.SPEC2017.C4/AE.BASELINE.4C/deepsjeng/deepsjeng.err_3
Workload-0: 
['/opt/spec2017/benchspec/CPU/531.deepsjeng_r/run/run_base_refrate_gem5_se-m64.0000/deepsjeng_r_base.gem5_se-m64', '/opt/spec2017/benchspec/CPU/531.deepsjeng_r/run/run_base_refrate_gem5_se-m64.0000/ref.txt']
Workload-1: 
['/opt/spec2017/benchspec/CPU/531.deepsjeng_r/run/run_base_refrate_gem5_se-m64.0000/deepsjeng_r_base.gem5_se-m64', '/opt/spec2017/benchspec/CPU/531.deepsjeng_r/run/run_base_refrate_gem5_se-m64.0000/ref.txt']
Workload-2: 
['/opt/spec2017/benchspec/CPU/531.deepsjeng_r/run/run_base_refrate_gem5_se-m64.0000/deepsjeng_r_base.gem5_se-m64', '/opt/spec2017/benchspec/CPU/531.deepsjeng_r/run/run_base_refrate_gem5_se-m64.0000/ref.txt']
Workload-3: 
['/opt/spec2017/benchspec/CPU/531.deepsjeng_r/run/run_base_refrate_gem5_se-m64.0000/deepsjeng_r_base.gem5_se-m64', '/opt/spec2017/benchspec/CPU/531.deepsjeng_r/run/run_base_refrate_gem5_se-m64.0000/ref.txt']
defense_enable:  False  detector:  MG  mitigation:  RRS  threshold:  800
mg_entries:  1700
rrs_tuples:  3400 rrs_swap_delay:  2740ns rit_acc_delay:  1.25ns
Switch at curTick count:10000
warn: membus.master is deprecated. `master` is now called `mem_side_ports`
warn: No dot file generated. Please install pydot to generate the dot file and pdf.
info: Entering event queue @ 16546382633421.  Starting simulation...
warn: PowerState: Already in the requested power state, request ignored
Switched CPUS @ tick 16546382643421
switching cpus
**** REAL SIMULATION ****
info: Entering event queue @ 16546382643421.  Starting simulation...
16549715966754: Event_285: system.switch_cpus3 progress event, total committed:22294887, progress insts committed: 22294887, IPC: 02.22726
16549715966754: Event_284: system.switch_cpus2 progress event, total committed:22294943, progress insts committed: 22294943, IPC: 02.22726
16549715966754: Event_283: system.switch_cpus1 progress event, total committed:22294394, progress insts committed: 22294394, IPC: 02.22721
16549715966754: Event_282: system.switch_cpus0 progress event, total committed:22294378, progress insts committed: 22294378, IPC: 02.22721
16553049300087: Event_282: system.switch_cpus0 progress event, total committed:44821574, progress insts committed: 22527196, IPC: 02.25047
16553049300087: Event_283: system.switch_cpus1 progress event, total committed:44821590, progress insts committed: 22527196, IPC: 02.25047
16553049300087: Event_284: system.switch_cpus2 progress event, total committed:44821683, progress insts committed: 22526740, IPC: 02.25042
16553049300087: Event_285: system.switch_cpus3 progress event, total committed:44821601, progress insts committed: 22526714, IPC: 02.25042
16556382633420: Event_285: system.switch_cpus3 progress event, total committed:67178672, progress insts committed: 22357071, IPC: 02.23347
16556382633420: Event_284: system.switch_cpus2 progress event, total committed:67178725, progress insts committed: 22357042, IPC: 02.23347
16556382633420: Event_283: system.switch_cpus1 progress event, total committed:67178662, progress insts committed: 22357072, IPC: 02.23347
16556382633420: Event_282: system.switch_cpus0 progress event, total committed:67178779, progress insts committed: 22357205, IPC: 02.23348
16559715966753: Event_282: system.switch_cpus0 progress event, total committed:89588449, progress insts committed: 22409670, IPC: 02.23873
16559715966753: Event_283: system.switch_cpus1 progress event, total committed:89588523, progress insts committed: 22409861, IPC: 02.23875
16559715966753: Event_284: system.switch_cpus2 progress event, total committed:89581970, progress insts committed: 22403245, IPC: 02.23808
16559715966753: Event_285: system.switch_cpus3 progress event, total committed:89582001, progress insts committed: 22403329, IPC: 02.23809
16563049300086: Event_285: system.switch_cpus3 progress event, total committed:111240594, progress insts committed: 21658593, IPC: 02.16369
16563049300086: Event_284: system.switch_cpus2 progress event, total committed:111240594, progress insts committed: 21658624, IPC: 002.1637
16563049300086: Event_283: system.switch_cpus1 progress event, total committed:111264173, progress insts committed: 21675650, IPC: 002.1654
16563049300086: Event_282: system.switch_cpus0 progress event, total committed:111264173, progress insts committed: 21675724, IPC: 002.1654
16566382633419: Event_282: system.switch_cpus0 progress event, total committed:132585527, progress insts committed: 21321354, IPC: 00002.13
16566382633419: Event_283: system.switch_cpus1 progress event, total committed:132585565, progress insts committed: 21321392, IPC: 02.13001
16566382633419: Event_284: system.switch_cpus2 progress event, total committed:132512824, progress insts committed: 21272230, IPC: 002.1251
16566382633419: Event_285: system.switch_cpus3 progress event, total committed:132526237, progress insts committed: 21285643, IPC: 02.12644
16569715966752: Event_285: system.switch_cpus3 progress event, total committed:154180182, progress insts committed: 21653945, IPC: 02.16323
16569715966752: Event_284: system.switch_cpus2 progress event, total committed:154180215, progress insts committed: 21667391, IPC: 02.16457
16569715966752: Event_283: system.switch_cpus1 progress event, total committed:154263793, progress insts committed: 21678228, IPC: 02.16565
16569715966752: Event_282: system.switch_cpus0 progress event, total committed:154263823, progress insts committed: 21678296, IPC: 02.16566
16573049300085: Event_282: system.switch_cpus0 progress event, total committed:176122845, progress insts committed: 21859022, IPC: 02.18372
16573049300085: Event_283: system.switch_cpus1 progress event, total committed:176110275, progress insts committed: 21846482, IPC: 02.18246
16573049300085: Event_284: system.switch_cpus2 progress event, total committed:176034526, progress insts committed: 21854311, IPC: 02.18325
16573049300085: Event_285: system.switch_cpus3 progress event, total committed:176034598, progress insts committed: 21854416, IPC: 02.18326
16576382633418: Event_285: system.switch_cpus3 progress event, total committed:197504867, progress insts committed: 21470269, IPC: 02.14488
16576382633418: Event_284: system.switch_cpus2 progress event, total committed:197513435, progress insts committed: 21478909, IPC: 02.14574
16576382633418: Event_283: system.switch_cpus1 progress event, total committed:197604217, progress insts committed: 21493942, IPC: 02.14724
16576382633418: Event_282: system.switch_cpus0 progress event, total committed:197604113, progress insts committed: 21481268, IPC: 02.14598
16579715966751: Event_282: system.switch_cpus0 progress event, total committed:219623294, progress insts committed: 22019181, IPC: 02.19972
16579715966751: Event_283: system.switch_cpus1 progress event, total committed:219623294, progress insts committed: 22019077, IPC: 02.19971
16579715966751: Event_284: system.switch_cpus2 progress event, total committed:219485823, progress insts committed: 21972388, IPC: 02.19504
16579715966751: Event_285: system.switch_cpus3 progress event, total committed:219485653, progress insts committed: 21980786, IPC: 02.19588
16583049300084: Event_285: system.switch_cpus3 progress event, total committed:241500233, progress insts committed: 22014580, IPC: 02.19926
16583049300084: Event_284: system.switch_cpus2 progress event, total committed:241503795, progress insts committed: 22017972, IPC: 002.1996
16583049300084: Event_283: system.switch_cpus1 progress event, total committed:241601809, progress insts committed: 21978515, IPC: 02.19565
16583049300084: Event_282: system.switch_cpus0 progress event, total committed:241601843, progress insts committed: 21978549, IPC: 02.19566
16586382633417: Event_282: system.switch_cpus0 progress event, total committed:263701490, progress insts committed: 22099647, IPC: 02.20775
16586382633417: Event_283: system.switch_cpus1 progress event, total committed:263701523, progress insts committed: 22099714, IPC: 02.20776
16586382633417: Event_284: system.switch_cpus2 progress event, total committed:263623985, progress insts committed: 22120190, IPC: 02.20981
16586382633417: Event_285: system.switch_cpus3 progress event, total committed:263624066, progress insts committed: 22123833, IPC: 02.21017
16589715966750: Event_285: system.switch_cpus3 progress event, total committed:285657667, progress insts committed: 22033601, IPC: 02.20116
16589715966750: Event_284: system.switch_cpus2 progress event, total committed:285657667, progress insts committed: 22033682, IPC: 02.20116
16589715966750: Event_283: system.switch_cpus1 progress event, total committed:285754881, progress insts committed: 22053358, IPC: 02.20313
16589715966750: Event_282: system.switch_cpus0 progress event, total committed:285754846, progress insts committed: 22053356, IPC: 02.20313
16593049300083: Event_282: system.switch_cpus0 progress event, total committed:308455575, progress insts committed: 22700729, IPC: 002.2678
16593049300083: Event_283: system.switch_cpus1 progress event, total committed:308455589, progress insts committed: 22700708, IPC: 002.2678
16593049300083: Event_284: system.switch_cpus2 progress event, total committed:308375169, progress insts committed: 22717502, IPC: 02.26948
16593049300083: Event_285: system.switch_cpus3 progress event, total committed:308363028, progress insts committed: 22705361, IPC: 02.26827
16596382633416: Event_285: system.switch_cpus3 progress event, total committed:331094572, progress insts committed: 22731544, IPC: 02.27088
16596382633416: Event_284: system.switch_cpus2 progress event, total committed:331094627, progress insts committed: 22719458, IPC: 02.26967
16596382633416: Event_283: system.switch_cpus1 progress event, total committed:331216777, progress insts committed: 22761188, IPC: 02.27384
16596382633416: Event_282: system.switch_cpus0 progress event, total committed:331217680, progress insts committed: 22762105, IPC: 02.27393
16599715966749: Event_282: system.switch_cpus0 progress event, total committed:353170710, progress insts committed: 21953030, IPC: 02.19311
16599715966749: Event_283: system.switch_cpus1 progress event, total committed:353192353, progress insts committed: 21975576, IPC: 02.19536
16599715966749: Event_284: system.switch_cpus2 progress event, total committed:353035081, progress insts committed: 21940454, IPC: 02.19185
16599715966749: Event_285: system.switch_cpus3 progress event, total committed:353035081, progress insts committed: 21940509, IPC: 02.19186
16603049300082: Event_285: system.switch_cpus3 progress event, total committed:374670032, progress insts committed: 21634951, IPC: 02.16133
16603049300082: Event_284: system.switch_cpus2 progress event, total committed:374668549, progress insts committed: 21633468, IPC: 02.16118
16603049300082: Event_283: system.switch_cpus1 progress event, total committed:374844342, progress insts committed: 21651989, IPC: 02.16303
16603049300082: Event_282: system.switch_cpus0 progress event, total committed:374844376, progress insts committed: 21673666, IPC: 002.1652
16606382633415: Event_282: system.switch_cpus0 progress event, total committed:396805172, progress insts committed: 21960796, IPC: 02.19388
16606382633415: Event_283: system.switch_cpus1 progress event, total committed:396805101, progress insts committed: 21960759, IPC: 02.19388
16606382633415: Event_284: system.switch_cpus2 progress event, total committed:396635562, progress insts committed: 21967013, IPC: 002.1945
16606382633415: Event_285: system.switch_cpus3 progress event, total committed:396635635, progress insts committed: 21965603, IPC: 02.19436
Exiting @ tick 16607502298242 because a thread reached the max instruction count
