
---------- Begin Simulation Statistics ----------
final_tick                               16607502298242                       # Number of ticks from beginning of simulation (restored from checkpoints and never reset)
host_inst_rate                                  99920                       # Simulator instruction rate (inst/s)
host_mem_usage                               17510888                       # Number of bytes of host memory used
host_op_rate                                   161525                       # Simulator op (including micro ops) rate (op/s)
host_seconds                                 10005.80                       # Real time elapsed on the host
host_tick_rate                                6108424                       # Simulator tick rate (ticks/s)
sim_freq                                 1000000000000                       # Frequency of simulated ticks
sim_insts                                   999780385                       # Number of instructions simulated
sim_ops                                    1616191294                       # Number of ops (including micro ops) simulated
sim_seconds                                  0.061120                       # Number of seconds simulated
sim_ticks                                 61119664821                       # Number of ticks simulated
system.cpu0.Branches                                2                       # Number of branches fetched
system.cpu0.committedInsts                         18                       # Number of instructions committed
system.cpu0.committedOps                           25                       # Number of ops (including micro ops) committed
system.cpu0.idle_fraction                           0                       # Percentage of idle cycles
system.cpu0.l2bus.snoop_filter.hit_multi_requests         1003                       # Number of requests hitting in the snoop filter with multiple (>1) holders of the requested data.
system.cpu0.l2bus.snoop_filter.hit_multi_snoops            0                       # Number of snoops hitting in the snoop filter with multiple (>1) holders of the requested data.
system.cpu0.l2bus.snoop_filter.hit_single_requests       543893                       # Number of requests hitting in the snoop filter with a single holder of the requested data.
system.cpu0.l2bus.snoop_filter.hit_single_snoops         4734                       # Number of snoops hitting in the snoop filter with a single holder of the requested data.
system.cpu0.l2bus.snoop_filter.tot_requests      1088076                       # Total number of requests made to the snoop filter.
system.cpu0.l2bus.snoop_filter.tot_snoops         4734                       # Total number of snoops made to the snoop filter.
system.cpu0.mmucache.mmubus.snoop_filter.hit_multi_requests            0                       # Number of requests hitting in the snoop filter with multiple (>1) holders of the requested data.
system.cpu0.mmucache.mmubus.snoop_filter.hit_multi_snoops            0                       # Number of snoops hitting in the snoop filter with multiple (>1) holders of the requested data.
system.cpu0.mmucache.mmubus.snoop_filter.hit_single_requests            0                       # Number of requests hitting in the snoop filter with a single holder of the requested data.
system.cpu0.mmucache.mmubus.snoop_filter.hit_single_snoops            0                       # Number of snoops hitting in the snoop filter with a single holder of the requested data.
system.cpu0.mmucache.mmubus.snoop_filter.tot_requests            0                       # Total number of requests made to the snoop filter.
system.cpu0.mmucache.mmubus.snoop_filter.tot_snoops            0                       # Total number of snoops made to the snoop filter.
system.cpu0.not_idle_fraction                       1                       # Percentage of non-idle cycles
system.cpu0.numCycles                              30                       # number of cpu cycles simulated
system.cpu0.numWorkItemsCompleted                   0                       # number of work items this cpu completed
system.cpu0.numWorkItemsStarted                     0                       # number of work items this cpu started
system.cpu0.num_busy_cycles                        30                       # Number of busy cycles
system.cpu0.num_cc_register_reads                  13                       # number of times the CC registers were read
system.cpu0.num_cc_register_writes                 18                       # number of times the CC registers were written
system.cpu0.num_conditional_control_insts            1                       # number of instructions that are conditional controls
system.cpu0.num_fp_alu_accesses                     0                       # Number of float alu accesses
system.cpu0.num_fp_insts                            0                       # number of float instructions
system.cpu0.num_fp_register_reads                   0                       # number of times the floating registers were read
system.cpu0.num_fp_register_writes                  0                       # number of times the floating registers were written
system.cpu0.num_func_calls                          0                       # number of times a function call or return occured
system.cpu0.num_idle_cycles                         0                       # Number of idle cycles
system.cpu0.num_int_alu_accesses                   25                       # Number of integer alu accesses
system.cpu0.num_int_insts                          25                       # number of integer instructions
system.cpu0.num_int_register_reads                 43                       # number of times the integer registers were read
system.cpu0.num_int_register_writes                23                       # number of times the integer registers were written
system.cpu0.num_load_insts                          4                       # Number of load instructions
system.cpu0.num_mem_refs                            4                       # number of memory refs
system.cpu0.num_store_insts                         0                       # Number of store instructions
system.cpu0.num_vec_alu_accesses                    0                       # Number of vector alu accesses
system.cpu0.num_vec_insts                           0                       # number of vector instructions
system.cpu0.num_vec_register_reads                  0                       # number of times the vector registers were read
system.cpu0.num_vec_register_writes                 0                       # number of times the vector registers were written
system.cpu0.op_class::No_OpClass                    0      0.00%      0.00% # Class of executed instruction
system.cpu0.op_class::IntAlu                       21     84.00%     84.00% # Class of executed instruction
system.cpu0.op_class::IntMult                       0      0.00%     84.00% # Class of executed instruction
system.cpu0.op_class::IntDiv                        0      0.00%     84.00% # Class of executed instruction
system.cpu0.op_class::FloatAdd                      0      0.00%     84.00% # Class of executed instruction
system.cpu0.op_class::FloatCmp                      0      0.00%     84.00% # Class of executed instruction
system.cpu0.op_class::FloatCvt                      0      0.00%     84.00% # Class of executed instruction
system.cpu0.op_class::FloatMult                     0      0.00%     84.00% # Class of executed instruction
system.cpu0.op_class::FloatMultAcc                  0      0.00%     84.00% # Class of executed instruction
system.cpu0.op_class::FloatDiv                      0      0.00%     84.00% # Class of executed instruction
system.cpu0.op_class::FloatMisc                     0      0.00%     84.00% # Class of executed instruction
system.cpu0.op_class::FloatSqrt                     0      0.00%     84.00% # Class of executed instruction
system.cpu0.op_class::SimdAdd                       0      0.00%     84.00% # Class of executed instruction
system.cpu0.op_class::SimdAddAcc                    0      0.00%     84.00% # Class of executed instruction
system.cpu0.op_class::SimdAlu                       0      0.00%     84.00% # Class of executed instruction
system.cpu0.op_class::SimdCmp                       0      0.00%     84.00% # Class of executed instruction
system.cpu0.op_class::SimdCvt                       0      0.00%     84.00% # Class of executed instruction
system.cpu0.op_class::SimdMisc                      0      0.00%     84.00% # Class of executed instruction
system.cpu0.op_class::SimdMult                      0      0.00%     84.00% # Class of executed instruction
system.cpu0.op_class::SimdMultAcc                   0      0.00%     84.00% # Class of executed instruction
system.cpu0.op_class::SimdShift                     0      0.00%     84.00% # Class of executed instruction
system.cpu0.op_class::SimdShiftAcc                  0      0.00%     84.00% # Class of executed instruction
system.cpu0.op_class::SimdDiv                       0      0.00%     84.00% # Class of executed instruction
system.cpu0.op_class::SimdSqrt                      0      0.00%     84.00% # Class of executed instruction
system.cpu0.op_class::SimdFloatAdd                  0      0.00%     84.00% # Class of executed instruction
system.cpu0.op_class::SimdFloatAlu                  0      0.00%     84.00% # Class of executed instruction
system.cpu0.op_class::SimdFloatCmp                  0      0.00%     84.00% # Class of executed instruction
system.cpu0.op_class::SimdFloatCvt                  0      0.00%     84.00% # Class of executed instruction
system.cpu0.op_class::SimdFloatDiv                  0      0.00%     84.00% # Class of executed instruction
system.cpu0.op_class::SimdFloatMisc                 0      0.00%     84.00% # Class of executed instruction
system.cpu0.op_class::SimdFloatMult                 0      0.00%     84.00% # Class of executed instruction
system.cpu0.op_class::SimdFloatMultAcc              0      0.00%     84.00% # Class of executed instruction
system.cpu0.op_class::SimdFloatSqrt                 0      0.00%     84.00% # Class of executed instruction
system.cpu0.op_class::SimdReduceAdd                 0      0.00%     84.00% # Class of executed instruction
system.cpu0.op_class::SimdReduceAlu                 0      0.00%     84.00% # Class of executed instruction
system.cpu0.op_class::SimdReduceCmp                 0      0.00%     84.00% # Class of executed instruction
system.cpu0.op_class::SimdFloatReduceAdd            0      0.00%     84.00% # Class of executed instruction
system.cpu0.op_class::SimdFloatReduceCmp            0      0.00%     84.00% # Class of executed instruction
system.cpu0.op_class::SimdAes                       0      0.00%     84.00% # Class of executed instruction
system.cpu0.op_class::SimdAesMix                    0      0.00%     84.00% # Class of executed instruction
system.cpu0.op_class::SimdSha1Hash                  0      0.00%     84.00% # Class of executed instruction
system.cpu0.op_class::SimdSha1Hash2                 0      0.00%     84.00% # Class of executed instruction
system.cpu0.op_class::SimdSha256Hash                0      0.00%     84.00% # Class of executed instruction
system.cpu0.op_class::SimdSha256Hash2               0      0.00%     84.00% # Class of executed instruction
system.cpu0.op_class::SimdShaSigma2                 0      0.00%     84.00% # Class of executed instruction
system.cpu0.op_class::SimdShaSigma3                 0      0.00%     84.00% # Class of executed instruction
system.cpu0.op_class::SimdPredAlu                   0      0.00%     84.00% # Class of executed instruction
system.cpu0.op_class::MemRead                       4     16.00%    100.00% # Class of executed instruction
system.cpu0.op_class::MemWrite                      0      0.00%    100.00% # Class of executed instruction
system.cpu0.op_class::FloatMemRead                  0      0.00%    100.00% # Class of executed instruction
system.cpu0.op_class::FloatMemWrite                 0      0.00%    100.00% # Class of executed instruction
system.cpu0.op_class::IprAccess                     0      0.00%    100.00% # Class of executed instruction
system.cpu0.op_class::InstPrefetch                  0      0.00%    100.00% # Class of executed instruction
system.cpu0.op_class::total                        25                       # Class of executed instruction
system.cpu0.workload.numSyscalls                    0                       # Number of system calls
system.cpu1.Branches                                2                       # Number of branches fetched
system.cpu1.committedInsts                         18                       # Number of instructions committed
system.cpu1.committedOps                           25                       # Number of ops (including micro ops) committed
system.cpu1.idle_fraction                           0                       # Percentage of idle cycles
system.cpu1.l2bus.snoop_filter.hit_multi_requests         1003                       # Number of requests hitting in the snoop filter with multiple (>1) holders of the requested data.
system.cpu1.l2bus.snoop_filter.hit_multi_snoops            0                       # Number of snoops hitting in the snoop filter with multiple (>1) holders of the requested data.
system.cpu1.l2bus.snoop_filter.hit_single_requests       543790                       # Number of requests hitting in the snoop filter with a single holder of the requested data.
system.cpu1.l2bus.snoop_filter.hit_single_snoops         2891                       # Number of snoops hitting in the snoop filter with a single holder of the requested data.
system.cpu1.l2bus.snoop_filter.tot_requests      1087990                       # Total number of requests made to the snoop filter.
system.cpu1.l2bus.snoop_filter.tot_snoops         2891                       # Total number of snoops made to the snoop filter.
system.cpu1.mmucache.mmubus.snoop_filter.hit_multi_requests            0                       # Number of requests hitting in the snoop filter with multiple (>1) holders of the requested data.
system.cpu1.mmucache.mmubus.snoop_filter.hit_multi_snoops            0                       # Number of snoops hitting in the snoop filter with multiple (>1) holders of the requested data.
system.cpu1.mmucache.mmubus.snoop_filter.hit_single_requests            0                       # Number of requests hitting in the snoop filter with a single holder of the requested data.
system.cpu1.mmucache.mmubus.snoop_filter.hit_single_snoops            0                       # Number of snoops hitting in the snoop filter with a single holder of the requested data.
system.cpu1.mmucache.mmubus.snoop_filter.tot_requests            0                       # Total number of requests made to the snoop filter.
system.cpu1.mmucache.mmubus.snoop_filter.tot_snoops            0                       # Total number of snoops made to the snoop filter.
system.cpu1.not_idle_fraction                       1                       # Percentage of non-idle cycles
system.cpu1.numCycles                              30                       # number of cpu cycles simulated
system.cpu1.numWorkItemsCompleted                   0                       # number of work items this cpu completed
system.cpu1.numWorkItemsStarted                     0                       # number of work items this cpu started
system.cpu1.num_busy_cycles                        30                       # Number of busy cycles
system.cpu1.num_cc_register_reads                  13                       # number of times the CC registers were read
system.cpu1.num_cc_register_writes                 18                       # number of times the CC registers were written
system.cpu1.num_conditional_control_insts            1                       # number of instructions that are conditional controls
system.cpu1.num_fp_alu_accesses                     0                       # Number of float alu accesses
system.cpu1.num_fp_insts                            0                       # number of float instructions
system.cpu1.num_fp_register_reads                   0                       # number of times the floating registers were read
system.cpu1.num_fp_register_writes                  0                       # number of times the floating registers were written
system.cpu1.num_func_calls                          0                       # number of times a function call or return occured
system.cpu1.num_idle_cycles                         0                       # Number of idle cycles
system.cpu1.num_int_alu_accesses                   25                       # Number of integer alu accesses
system.cpu1.num_int_insts                          25                       # number of integer instructions
system.cpu1.num_int_register_reads                 43                       # number of times the integer registers were read
system.cpu1.num_int_register_writes                23                       # number of times the integer registers were written
system.cpu1.num_load_insts                          4                       # Number of load instructions
system.cpu1.num_mem_refs                            4                       # number of memory refs
system.cpu1.num_store_insts                         0                       # Number of store instructions
system.cpu1.num_vec_alu_accesses                    0                       # Number of vector alu accesses
system.cpu1.num_vec_insts                           0                       # number of vector instructions
system.cpu1.num_vec_register_reads                  0                       # number of times the vector registers were read
system.cpu1.num_vec_register_writes                 0                       # number of times the vector registers were written
system.cpu1.op_class::No_OpClass                    0      0.00%      0.00% # Class of executed instruction
system.cpu1.op_class::IntAlu                       21     84.00%     84.00% # Class of executed instruction
system.cpu1.op_class::IntMult                       0      0.00%     84.00% # Class of executed instruction
system.cpu1.op_class::IntDiv                        0      0.00%     84.00% # Class of executed instruction
system.cpu1.op_class::FloatAdd                      0      0.00%     84.00% # Class of executed instruction
system.cpu1.op_class::FloatCmp                      0      0.00%     84.00% # Class of executed instruction
system.cpu1.op_class::FloatCvt                      0      0.00%     84.00% # Class of executed instruction
system.cpu1.op_class::FloatMult                     0      0.00%     84.00% # Class of executed instruction
system.cpu1.op_class::FloatMultAcc                  0      0.00%     84.00% # Class of executed instruction
system.cpu1.op_class::FloatDiv                      0      0.00%     84.00% # Class of executed instruction
system.cpu1.op_class::FloatMisc                     0      0.00%     84.00% # Class of executed instruction
system.cpu1.op_class::FloatSqrt                     0      0.00%     84.00% # Class of executed instruction
system.cpu1.op_class::SimdAdd                       0      0.00%     84.00% # Class of executed instruction
system.cpu1.op_class::SimdAddAcc                    0      0.00%     84.00% # Class of executed instruction
system.cpu1.op_class::SimdAlu                       0      0.00%     84.00% # Class of executed instruction
system.cpu1.op_class::SimdCmp                       0      0.00%     84.00% # Class of executed instruction
system.cpu1.op_class::SimdCvt                       0      0.00%     84.00% # Class of executed instruction
system.cpu1.op_class::SimdMisc                      0      0.00%     84.00% # Class of executed instruction
system.cpu1.op_class::SimdMult                      0      0.00%     84.00% # Class of executed instruction
system.cpu1.op_class::SimdMultAcc                   0      0.00%     84.00% # Class of executed instruction
system.cpu1.op_class::SimdShift                     0      0.00%     84.00% # Class of executed instruction
system.cpu1.op_class::SimdShiftAcc                  0      0.00%     84.00% # Class of executed instruction
system.cpu1.op_class::SimdDiv                       0      0.00%     84.00% # Class of executed instruction
system.cpu1.op_class::SimdSqrt                      0      0.00%     84.00% # Class of executed instruction
system.cpu1.op_class::SimdFloatAdd                  0      0.00%     84.00% # Class of executed instruction
system.cpu1.op_class::SimdFloatAlu                  0      0.00%     84.00% # Class of executed instruction
system.cpu1.op_class::SimdFloatCmp                  0      0.00%     84.00% # Class of executed instruction
system.cpu1.op_class::SimdFloatCvt                  0      0.00%     84.00% # Class of executed instruction
system.cpu1.op_class::SimdFloatDiv                  0      0.00%     84.00% # Class of executed instruction
system.cpu1.op_class::SimdFloatMisc                 0      0.00%     84.00% # Class of executed instruction
system.cpu1.op_class::SimdFloatMult                 0      0.00%     84.00% # Class of executed instruction
system.cpu1.op_class::SimdFloatMultAcc              0      0.00%     84.00% # Class of executed instruction
system.cpu1.op_class::SimdFloatSqrt                 0      0.00%     84.00% # Class of executed instruction
system.cpu1.op_class::SimdReduceAdd                 0      0.00%     84.00% # Class of executed instruction
system.cpu1.op_class::SimdReduceAlu                 0      0.00%     84.00% # Class of executed instruction
system.cpu1.op_class::SimdReduceCmp                 0      0.00%     84.00% # Class of executed instruction
system.cpu1.op_class::SimdFloatReduceAdd            0      0.00%     84.00% # Class of executed instruction
system.cpu1.op_class::SimdFloatReduceCmp            0      0.00%     84.00% # Class of executed instruction
system.cpu1.op_class::SimdAes                       0      0.00%     84.00% # Class of executed instruction
system.cpu1.op_class::SimdAesMix                    0      0.00%     84.00% # Class of executed instruction
system.cpu1.op_class::SimdSha1Hash                  0      0.00%     84.00% # Class of executed instruction
system.cpu1.op_class::SimdSha1Hash2                 0      0.00%     84.00% # Class of executed instruction
system.cpu1.op_class::SimdSha256Hash                0      0.00%     84.00% # Class of executed instruction
system.cpu1.op_class::SimdSha256Hash2               0      0.00%     84.00% # Class of executed instruction
system.cpu1.op_class::SimdShaSigma2                 0      0.00%     84.00% # Class of executed instruction
system.cpu1.op_class::SimdShaSigma3                 0      0.00%     84.00% # Class of executed instruction
system.cpu1.op_class::SimdPredAlu                   0      0.00%     84.00% # Class of executed instruction
system.cpu1.op_class::MemRead                       4     16.00%    100.00% # Class of executed instruction
system.cpu1.op_class::MemWrite                      0      0.00%    100.00% # Class of executed instruction
system.cpu1.op_class::FloatMemRead                  0      0.00%    100.00% # Class of executed instruction
system.cpu1.op_class::FloatMemWrite                 0      0.00%    100.00% # Class of executed instruction
system.cpu1.op_class::IprAccess                     0      0.00%    100.00% # Class of executed instruction
system.cpu1.op_class::InstPrefetch                  0      0.00%    100.00% # Class of executed instruction
system.cpu1.op_class::total                        25                       # Class of executed instruction
system.cpu1.workload.numSyscalls                    0                       # Number of system calls
system.cpu2.Branches                                2                       # Number of branches fetched
system.cpu2.committedInsts                         18                       # Number of instructions committed
system.cpu2.committedOps                           25                       # Number of ops (including micro ops) committed
system.cpu2.idle_fraction                           0                       # Percentage of idle cycles
system.cpu2.l2bus.snoop_filter.hit_multi_requests         1002                       # Number of requests hitting in the snoop filter with multiple (>1) holders of the requested data.
system.cpu2.l2bus.snoop_filter.hit_multi_snoops            0                       # Number of snoops hitting in the snoop filter with multiple (>1) holders of the requested data.
system.cpu2.l2bus.snoop_filter.hit_single_requests       543581                       # Number of requests hitting in the snoop filter with a single holder of the requested data.
system.cpu2.l2bus.snoop_filter.hit_single_snoops         4740                       # Number of snoops hitting in the snoop filter with a single holder of the requested data.
system.cpu2.l2bus.snoop_filter.tot_requests      1087455                       # Total number of requests made to the snoop filter.
system.cpu2.l2bus.snoop_filter.tot_snoops         4740                       # Total number of snoops made to the snoop filter.
system.cpu2.mmucache.mmubus.snoop_filter.hit_multi_requests            0                       # Number of requests hitting in the snoop filter with multiple (>1) holders of the requested data.
system.cpu2.mmucache.mmubus.snoop_filter.hit_multi_snoops            0                       # Number of snoops hitting in the snoop filter with multiple (>1) holders of the requested data.
system.cpu2.mmucache.mmubus.snoop_filter.hit_single_requests            0                       # Number of requests hitting in the snoop filter with a single holder of the requested data.
system.cpu2.mmucache.mmubus.snoop_filter.hit_single_snoops            0                       # Number of snoops hitting in the snoop filter with a single holder of the requested data.
system.cpu2.mmucache.mmubus.snoop_filter.tot_requests            0                       # Total number of requests made to the snoop filter.
system.cpu2.mmucache.mmubus.snoop_filter.tot_snoops            0                       # Total number of snoops made to the snoop filter.
system.cpu2.not_idle_fraction                       1                       # Percentage of non-idle cycles
system.cpu2.numCycles                              30                       # number of cpu cycles simulated
system.cpu2.numWorkItemsCompleted                   0                       # number of work items this cpu completed
system.cpu2.numWorkItemsStarted                     0                       # number of work items this cpu started
system.cpu2.num_busy_cycles                        30                       # Number of busy cycles
system.cpu2.num_cc_register_reads                  13                       # number of times the CC registers were read
system.cpu2.num_cc_register_writes                 18                       # number of times the CC registers were written
system.cpu2.num_conditional_control_insts            1                       # number of instructions that are conditional controls
system.cpu2.num_fp_alu_accesses                     0                       # Number of float alu accesses
system.cpu2.num_fp_insts                            0                       # number of float instructions
system.cpu2.num_fp_register_reads                   0                       # number of times the floating registers were read
system.cpu2.num_fp_register_writes                  0                       # number of times the floating registers were written
system.cpu2.num_func_calls                          0                       # number of times a function call or return occured
system.cpu2.num_idle_cycles                         0                       # Number of idle cycles
system.cpu2.num_int_alu_accesses                   25                       # Number of integer alu accesses
system.cpu2.num_int_insts                          25                       # number of integer instructions
system.cpu2.num_int_register_reads                 43                       # number of times the integer registers were read
system.cpu2.num_int_register_writes                23                       # number of times the integer registers were written
system.cpu2.num_load_insts                          4                       # Number of load instructions
system.cpu2.num_mem_refs                            4                       # number of memory refs
system.cpu2.num_store_insts                         0                       # Number of store instructions
system.cpu2.num_vec_alu_accesses                    0                       # Number of vector alu accesses
system.cpu2.num_vec_insts                           0                       # number of vector instructions
system.cpu2.num_vec_register_reads                  0                       # number of times the vector registers were read
system.cpu2.num_vec_register_writes                 0                       # number of times the vector registers were written
system.cpu2.op_class::No_OpClass                    0      0.00%      0.00% # Class of executed instruction
system.cpu2.op_class::IntAlu                       21     84.00%     84.00% # Class of executed instruction
system.cpu2.op_class::IntMult                       0      0.00%     84.00% # Class of executed instruction
system.cpu2.op_class::IntDiv                        0      0.00%     84.00% # Class of executed instruction
system.cpu2.op_class::FloatAdd                      0      0.00%     84.00% # Class of executed instruction
system.cpu2.op_class::FloatCmp                      0      0.00%     84.00% # Class of executed instruction
system.cpu2.op_class::FloatCvt                      0      0.00%     84.00% # Class of executed instruction
system.cpu2.op_class::FloatMult                     0      0.00%     84.00% # Class of executed instruction
system.cpu2.op_class::FloatMultAcc                  0      0.00%     84.00% # Class of executed instruction
system.cpu2.op_class::FloatDiv                      0      0.00%     84.00% # Class of executed instruction
system.cpu2.op_class::FloatMisc                     0      0.00%     84.00% # Class of executed instruction
system.cpu2.op_class::FloatSqrt                     0      0.00%     84.00% # Class of executed instruction
system.cpu2.op_class::SimdAdd                       0      0.00%     84.00% # Class of executed instruction
system.cpu2.op_class::SimdAddAcc                    0      0.00%     84.00% # Class of executed instruction
system.cpu2.op_class::SimdAlu                       0      0.00%     84.00% # Class of executed instruction
system.cpu2.op_class::SimdCmp                       0      0.00%     84.00% # Class of executed instruction
system.cpu2.op_class::SimdCvt                       0      0.00%     84.00% # Class of executed instruction
system.cpu2.op_class::SimdMisc                      0      0.00%     84.00% # Class of executed instruction
system.cpu2.op_class::SimdMult                      0      0.00%     84.00% # Class of executed instruction
system.cpu2.op_class::SimdMultAcc                   0      0.00%     84.00% # Class of executed instruction
system.cpu2.op_class::SimdShift                     0      0.00%     84.00% # Class of executed instruction
system.cpu2.op_class::SimdShiftAcc                  0      0.00%     84.00% # Class of executed instruction
system.cpu2.op_class::SimdDiv                       0      0.00%     84.00% # Class of executed instruction
system.cpu2.op_class::SimdSqrt                      0      0.00%     84.00% # Class of executed instruction
system.cpu2.op_class::SimdFloatAdd                  0      0.00%     84.00% # Class of executed instruction
system.cpu2.op_class::SimdFloatAlu                  0      0.00%     84.00% # Class of executed instruction
system.cpu2.op_class::SimdFloatCmp                  0      0.00%     84.00% # Class of executed instruction
system.cpu2.op_class::SimdFloatCvt                  0      0.00%     84.00% # Class of executed instruction
system.cpu2.op_class::SimdFloatDiv                  0      0.00%     84.00% # Class of executed instruction
system.cpu2.op_class::SimdFloatMisc                 0      0.00%     84.00% # Class of executed instruction
system.cpu2.op_class::SimdFloatMult                 0      0.00%     84.00% # Class of executed instruction
system.cpu2.op_class::SimdFloatMultAcc              0      0.00%     84.00% # Class of executed instruction
system.cpu2.op_class::SimdFloatSqrt                 0      0.00%     84.00% # Class of executed instruction
system.cpu2.op_class::SimdReduceAdd                 0      0.00%     84.00% # Class of executed instruction
system.cpu2.op_class::SimdReduceAlu                 0      0.00%     84.00% # Class of executed instruction
system.cpu2.op_class::SimdReduceCmp                 0      0.00%     84.00% # Class of executed instruction
system.cpu2.op_class::SimdFloatReduceAdd            0      0.00%     84.00% # Class of executed instruction
system.cpu2.op_class::SimdFloatReduceCmp            0      0.00%     84.00% # Class of executed instruction
system.cpu2.op_class::SimdAes                       0      0.00%     84.00% # Class of executed instruction
system.cpu2.op_class::SimdAesMix                    0      0.00%     84.00% # Class of executed instruction
system.cpu2.op_class::SimdSha1Hash                  0      0.00%     84.00% # Class of executed instruction
system.cpu2.op_class::SimdSha1Hash2                 0      0.00%     84.00% # Class of executed instruction
system.cpu2.op_class::SimdSha256Hash                0      0.00%     84.00% # Class of executed instruction
system.cpu2.op_class::SimdSha256Hash2               0      0.00%     84.00% # Class of executed instruction
system.cpu2.op_class::SimdShaSigma2                 0      0.00%     84.00% # Class of executed instruction
system.cpu2.op_class::SimdShaSigma3                 0      0.00%     84.00% # Class of executed instruction
system.cpu2.op_class::SimdPredAlu                   0      0.00%     84.00% # Class of executed instruction
system.cpu2.op_class::MemRead                       4     16.00%    100.00% # Class of executed instruction
system.cpu2.op_class::MemWrite                      0      0.00%    100.00% # Class of executed instruction
system.cpu2.op_class::FloatMemRead                  0      0.00%    100.00% # Class of executed instruction
system.cpu2.op_class::FloatMemWrite                 0      0.00%    100.00% # Class of executed instruction
system.cpu2.op_class::IprAccess                     0      0.00%    100.00% # Class of executed instruction
system.cpu2.op_class::InstPrefetch                  0      0.00%    100.00% # Class of executed instruction
system.cpu2.op_class::total                        25                       # Class of executed instruction
system.cpu2.workload.numSyscalls                    0                       # Number of system calls
system.cpu3.Branches                                2                       # Number of branches fetched
system.cpu3.committedInsts                         18                       # Number of instructions committed
system.cpu3.committedOps                           25                       # Number of ops (including micro ops) committed
system.cpu3.idle_fraction                           0                       # Percentage of idle cycles
system.cpu3.l2bus.snoop_filter.hit_multi_requests         1010                       # Number of requests hitting in the snoop filter with multiple (>1) holders of the requested data.
system.cpu3.l2bus.snoop_filter.hit_multi_snoops            0                       # Number of snoops hitting in the snoop filter with multiple (>1) holders of the requested data.
system.cpu3.l2bus.snoop_filter.hit_single_requests       543444                       # Number of requests hitting in the snoop filter with a single holder of the requested data.
system.cpu3.l2bus.snoop_filter.hit_single_snoops         2891                       # Number of snoops hitting in the snoop filter with a single holder of the requested data.
system.cpu3.l2bus.snoop_filter.tot_requests      1087298                       # Total number of requests made to the snoop filter.
system.cpu3.l2bus.snoop_filter.tot_snoops         2891                       # Total number of snoops made to the snoop filter.
system.cpu3.mmucache.mmubus.snoop_filter.hit_multi_requests            0                       # Number of requests hitting in the snoop filter with multiple (>1) holders of the requested data.
system.cpu3.mmucache.mmubus.snoop_filter.hit_multi_snoops            0                       # Number of snoops hitting in the snoop filter with multiple (>1) holders of the requested data.
system.cpu3.mmucache.mmubus.snoop_filter.hit_single_requests            0                       # Number of requests hitting in the snoop filter with a single holder of the requested data.
system.cpu3.mmucache.mmubus.snoop_filter.hit_single_snoops            0                       # Number of snoops hitting in the snoop filter with a single holder of the requested data.
system.cpu3.mmucache.mmubus.snoop_filter.tot_requests            0                       # Total number of requests made to the snoop filter.
system.cpu3.mmucache.mmubus.snoop_filter.tot_snoops            0                       # Total number of snoops made to the snoop filter.
system.cpu3.not_idle_fraction                       1                       # Percentage of non-idle cycles
system.cpu3.numCycles                              30                       # number of cpu cycles simulated
system.cpu3.numWorkItemsCompleted                   0                       # number of work items this cpu completed
system.cpu3.numWorkItemsStarted                     0                       # number of work items this cpu started
system.cpu3.num_busy_cycles                        30                       # Number of busy cycles
system.cpu3.num_cc_register_reads                  13                       # number of times the CC registers were read
system.cpu3.num_cc_register_writes                 18                       # number of times the CC registers were written
system.cpu3.num_conditional_control_insts            1                       # number of instructions that are conditional controls
system.cpu3.num_fp_alu_accesses                     0                       # Number of float alu accesses
system.cpu3.num_fp_insts                            0                       # number of float instructions
system.cpu3.num_fp_register_reads                   0                       # number of times the floating registers were read
system.cpu3.num_fp_register_writes                  0                       # number of times the floating registers were written
system.cpu3.num_func_calls                          0                       # number of times a function call or return occured
system.cpu3.num_idle_cycles                         0                       # Number of idle cycles
system.cpu3.num_int_alu_accesses                   25                       # Number of integer alu accesses
system.cpu3.num_int_insts                          25                       # number of integer instructions
system.cpu3.num_int_register_reads                 43                       # number of times the integer registers were read
system.cpu3.num_int_register_writes                23                       # number of times the integer registers were written
system.cpu3.num_load_insts                          4                       # Number of load instructions
system.cpu3.num_mem_refs                            4                       # number of memory refs
system.cpu3.num_store_insts                         0                       # Number of store instructions
system.cpu3.num_vec_alu_accesses                    0                       # Number of vector alu accesses
system.cpu3.num_vec_insts                           0                       # number of vector instructions
system.cpu3.num_vec_register_reads                  0                       # number of times the vector registers were read
system.cpu3.num_vec_register_writes                 0                       # number of times the vector registers were written
system.cpu3.op_class::No_OpClass                    0      0.00%      0.00% # Class of executed instruction
system.cpu3.op_class::IntAlu                       21     84.00%     84.00% # Class of executed instruction
system.cpu3.op_class::IntMult                       0      0.00%     84.00% # Class of executed instruction
system.cpu3.op_class::IntDiv                        0      0.00%     84.00% # Class of executed instruction
system.cpu3.op_class::FloatAdd                      0      0.00%     84.00% # Class of executed instruction
system.cpu3.op_class::FloatCmp                      0      0.00%     84.00% # Class of executed instruction
system.cpu3.op_class::FloatCvt                      0      0.00%     84.00% # Class of executed instruction
system.cpu3.op_class::FloatMult                     0      0.00%     84.00% # Class of executed instruction
system.cpu3.op_class::FloatMultAcc                  0      0.00%     84.00% # Class of executed instruction
system.cpu3.op_class::FloatDiv                      0      0.00%     84.00% # Class of executed instruction
system.cpu3.op_class::FloatMisc                     0      0.00%     84.00% # Class of executed instruction
system.cpu3.op_class::FloatSqrt                     0      0.00%     84.00% # Class of executed instruction
system.cpu3.op_class::SimdAdd                       0      0.00%     84.00% # Class of executed instruction
system.cpu3.op_class::SimdAddAcc                    0      0.00%     84.00% # Class of executed instruction
system.cpu3.op_class::SimdAlu                       0      0.00%     84.00% # Class of executed instruction
system.cpu3.op_class::SimdCmp                       0      0.00%     84.00% # Class of executed instruction
system.cpu3.op_class::SimdCvt                       0      0.00%     84.00% # Class of executed instruction
system.cpu3.op_class::SimdMisc                      0      0.00%     84.00% # Class of executed instruction
system.cpu3.op_class::SimdMult                      0      0.00%     84.00% # Class of executed instruction
system.cpu3.op_class::SimdMultAcc                   0      0.00%     84.00% # Class of executed instruction
system.cpu3.op_class::SimdShift                     0      0.00%     84.00% # Class of executed instruction
system.cpu3.op_class::SimdShiftAcc                  0      0.00%     84.00% # Class of executed instruction
system.cpu3.op_class::SimdDiv                       0      0.00%     84.00% # Class of executed instruction
system.cpu3.op_class::SimdSqrt                      0      0.00%     84.00% # Class of executed instruction
system.cpu3.op_class::SimdFloatAdd                  0      0.00%     84.00% # Class of executed instruction
system.cpu3.op_class::SimdFloatAlu                  0      0.00%     84.00% # Class of executed instruction
system.cpu3.op_class::SimdFloatCmp                  0      0.00%     84.00% # Class of executed instruction
system.cpu3.op_class::SimdFloatCvt                  0      0.00%     84.00% # Class of executed instruction
system.cpu3.op_class::SimdFloatDiv                  0      0.00%     84.00% # Class of executed instruction
system.cpu3.op_class::SimdFloatMisc                 0      0.00%     84.00% # Class of executed instruction
system.cpu3.op_class::SimdFloatMult                 0      0.00%     84.00% # Class of executed instruction
system.cpu3.op_class::SimdFloatMultAcc              0      0.00%     84.00% # Class of executed instruction
system.cpu3.op_class::SimdFloatSqrt                 0      0.00%     84.00% # Class of executed instruction
system.cpu3.op_class::SimdReduceAdd                 0      0.00%     84.00% # Class of executed instruction
system.cpu3.op_class::SimdReduceAlu                 0      0.00%     84.00% # Class of executed instruction
system.cpu3.op_class::SimdReduceCmp                 0      0.00%     84.00% # Class of executed instruction
system.cpu3.op_class::SimdFloatReduceAdd            0      0.00%     84.00% # Class of executed instruction
system.cpu3.op_class::SimdFloatReduceCmp            0      0.00%     84.00% # Class of executed instruction
system.cpu3.op_class::SimdAes                       0      0.00%     84.00% # Class of executed instruction
system.cpu3.op_class::SimdAesMix                    0      0.00%     84.00% # Class of executed instruction
system.cpu3.op_class::SimdSha1Hash                  0      0.00%     84.00% # Class of executed instruction
system.cpu3.op_class::SimdSha1Hash2                 0      0.00%     84.00% # Class of executed instruction
system.cpu3.op_class::SimdSha256Hash                0      0.00%     84.00% # Class of executed instruction
system.cpu3.op_class::SimdSha256Hash2               0      0.00%     84.00% # Class of executed instruction
system.cpu3.op_class::SimdShaSigma2                 0      0.00%     84.00% # Class of executed instruction
system.cpu3.op_class::SimdShaSigma3                 0      0.00%     84.00% # Class of executed instruction
system.cpu3.op_class::SimdPredAlu                   0      0.00%     84.00% # Class of executed instruction
system.cpu3.op_class::MemRead                       4     16.00%    100.00% # Class of executed instruction
system.cpu3.op_class::MemWrite                      0      0.00%    100.00% # Class of executed instruction
system.cpu3.op_class::FloatMemRead                  0      0.00%    100.00% # Class of executed instruction
system.cpu3.op_class::FloatMemWrite                 0      0.00%    100.00% # Class of executed instruction
system.cpu3.op_class::IprAccess                     0      0.00%    100.00% # Class of executed instruction
system.cpu3.op_class::InstPrefetch                  0      0.00%    100.00% # Class of executed instruction
system.cpu3.op_class::total                        25                       # Class of executed instruction
system.cpu3.workload.numSyscalls                    0                       # Number of system calls
system.l3bus.snoop_filter.hit_multi_requests            0                       # Number of requests hitting in the snoop filter with multiple (>1) holders of the requested data.
system.l3bus.snoop_filter.hit_multi_snoops            0                       # Number of snoops hitting in the snoop filter with multiple (>1) holders of the requested data.
system.l3bus.snoop_filter.hit_single_requests       338144                       # Number of requests hitting in the snoop filter with a single holder of the requested data.
system.l3bus.snoop_filter.hit_single_snoops            0                       # Number of snoops hitting in the snoop filter with a single holder of the requested data.
system.l3bus.snoop_filter.tot_requests         689359                       # Total number of requests made to the snoop filter.
system.l3bus.snoop_filter.tot_snoops                0                       # Total number of snoops made to the snoop filter.
system.membus.snoop_filter.hit_multi_requests            0                       # Number of requests hitting in the snoop filter with multiple (>1) holders of the requested data.
system.membus.snoop_filter.hit_multi_snoops            0                       # Number of snoops hitting in the snoop filter with multiple (>1) holders of the requested data.
system.membus.snoop_filter.hit_single_requests       230462                       # Number of requests hitting in the snoop filter with a single holder of the requested data.
system.membus.snoop_filter.hit_single_snoops            0                       # Number of snoops hitting in the snoop filter with a single holder of the requested data.
system.membus.snoop_filter.tot_requests        539191                       # Total number of requests made to the snoop filter.
system.membus.snoop_filter.tot_snoops               0                       # Total number of snoops made to the snoop filter.
system.switch_cpus0.cc_regfile_reads        223619886                       # number of cc regfile reads
system.switch_cpus0.cc_regfile_writes       199557114                       # number of cc regfile writes
system.switch_cpus0.committedInsts          250000000                       # Number of Instructions Simulated
system.switch_cpus0.committedOps            404136868                       # Number of Ops (including micro ops) Simulated
system.switch_cpus0.cpi                      0.734170                       # CPI: Cycles Per Instruction
system.switch_cpus0.cpi_total                0.734170                       # CPI: Total CPI of All Threads
system.switch_cpus0.fp_regfile_reads           230364                       # number of floating regfile reads
system.switch_cpus0.fp_regfile_writes          230473                       # number of floating regfile writes
system.switch_cpus0.idleCycles                 127986                       # Total number of cycles that the CPU has spent unscheduled due to idling
system.switch_cpus0.iew.branchMispredicts      3350902                       # Number of branch mispredicts detected at execute
system.switch_cpus0.iew.exec_branches        44011839                       # Number of branches executed
system.switch_cpus0.iew.exec_nop                    0                       # number of nop insts executed
system.switch_cpus0.iew.exec_rate            2.790531                       # Inst execution rate
system.switch_cpus0.iew.exec_refs           118434830                       # number of memory reference insts executed
system.switch_cpus0.iew.exec_stores          36237550                       # Number of stores executed
system.switch_cpus0.iew.exec_swp                    0                       # number of swp insts executed
system.switch_cpus0.iew.iewBlockCycles       26313023                       # Number of cycles IEW is blocking
system.switch_cpus0.iew.iewDispLoadInsts     94549936                       # Number of dispatched load instructions
system.switch_cpus0.iew.iewDispNonSpecInsts            0                       # Number of dispatched non-speculative instructions
system.switch_cpus0.iew.iewDispSquashedInsts        85076                       # Number of squashed instructions skipped by dispatch
system.switch_cpus0.iew.iewDispStoreInsts     43404588                       # Number of dispatched store instructions
system.switch_cpus0.iew.iewDispatchedInsts    603723062                       # Number of instructions dispatched to IQ
system.switch_cpus0.iew.iewExecLoadInsts     82197280                       # Number of load instructions executed
system.switch_cpus0.iew.iewExecSquashedInsts      6769280                       # Number of squashed instructions skipped in execute
system.switch_cpus0.iew.iewExecutedInsts    512181057                       # Number of executed instructions
system.switch_cpus0.iew.iewIQFullEvents         46611                       # Number of times the IQ has become full, causing a stall
system.switch_cpus0.iew.iewIdleCycles               0                       # Number of cycles IEW is idle
system.switch_cpus0.iew.iewLSQFullEvents        50834                       # Number of times the LSQ has become full, causing a stall
system.switch_cpus0.iew.iewSquashCycles       3013449                       # Number of cycles IEW is squashing
system.switch_cpus0.iew.iewUnblockCycles       111465                       # Number of cycles IEW is unblocking
system.switch_cpus0.iew.memOrderViolationEvents       109195                       # Number of memory order violations
system.switch_cpus0.iew.predictedNotTakenIncorrect      1669336                       # Number of branches that were predicted not taken incorrectly
system.switch_cpus0.iew.predictedTakenIncorrect      1681566                       # Number of branches that were predicted taken incorrectly
system.switch_cpus0.iew.wb_consumers        664603415                       # num instructions consuming a value
system.switch_cpus0.iew.wb_count            509876371                       # cumulative count of insts written-back
system.switch_cpus0.iew.wb_fanout            0.583359                       # average fanout of values written-back
system.switch_cpus0.iew.wb_producers        387702618                       # num instructions producing a value
system.switch_cpus0.iew.wb_rate              2.777974                       # insts written-back per cycle
system.switch_cpus0.iew.wb_sent             511493605                       # cumulative count of insts sent to commit
system.switch_cpus0.int_regfile_reads       795819290                       # number of integer regfile reads
system.switch_cpus0.int_regfile_writes      434635767                       # number of integer regfile writes
system.switch_cpus0.ipc                      1.362082                       # IPC: Instructions Per Cycle
system.switch_cpus0.ipc_total                1.362082                       # IPC: Total IPC of All Threads
system.switch_cpus0.iq.FU_type_0::No_OpClass      1319298      0.25%      0.25% # Type of FU issued
system.switch_cpus0.iq.FU_type_0::IntAlu    392304178     75.60%     75.85% # Type of FU issued
system.switch_cpus0.iq.FU_type_0::IntMult      3433556      0.66%     76.51% # Type of FU issued
system.switch_cpus0.iq.FU_type_0::IntDiv       893812      0.17%     76.68% # Type of FU issued
system.switch_cpus0.iq.FU_type_0::FloatAdd            0      0.00%     76.68% # Type of FU issued
system.switch_cpus0.iq.FU_type_0::FloatCmp            0      0.00%     76.68% # Type of FU issued
system.switch_cpus0.iq.FU_type_0::FloatCvt            0      0.00%     76.68% # Type of FU issued
system.switch_cpus0.iq.FU_type_0::FloatMult            0      0.00%     76.68% # Type of FU issued
system.switch_cpus0.iq.FU_type_0::FloatMultAcc            0      0.00%     76.68% # Type of FU issued
system.switch_cpus0.iq.FU_type_0::FloatDiv            0      0.00%     76.68% # Type of FU issued
system.switch_cpus0.iq.FU_type_0::FloatMisc            0      0.00%     76.68% # Type of FU issued
system.switch_cpus0.iq.FU_type_0::FloatSqrt            0      0.00%     76.68% # Type of FU issued
system.switch_cpus0.iq.FU_type_0::SimdAdd            0      0.00%     76.68% # Type of FU issued
system.switch_cpus0.iq.FU_type_0::SimdAddAcc            0      0.00%     76.68% # Type of FU issued
system.switch_cpus0.iq.FU_type_0::SimdAlu            0      0.00%     76.68% # Type of FU issued
system.switch_cpus0.iq.FU_type_0::SimdCmp            0      0.00%     76.68% # Type of FU issued
system.switch_cpus0.iq.FU_type_0::SimdCvt            0      0.00%     76.68% # Type of FU issued
system.switch_cpus0.iq.FU_type_0::SimdMisc            0      0.00%     76.68% # Type of FU issued
system.switch_cpus0.iq.FU_type_0::SimdMult            0      0.00%     76.68% # Type of FU issued
system.switch_cpus0.iq.FU_type_0::SimdMultAcc            0      0.00%     76.68% # Type of FU issued
system.switch_cpus0.iq.FU_type_0::SimdShift            0      0.00%     76.68% # Type of FU issued
system.switch_cpus0.iq.FU_type_0::SimdShiftAcc            0      0.00%     76.68% # Type of FU issued
system.switch_cpus0.iq.FU_type_0::SimdDiv            0      0.00%     76.68% # Type of FU issued
system.switch_cpus0.iq.FU_type_0::SimdSqrt            0      0.00%     76.68% # Type of FU issued
system.switch_cpus0.iq.FU_type_0::SimdFloatAdd            0      0.00%     76.68% # Type of FU issued
system.switch_cpus0.iq.FU_type_0::SimdFloatAlu            0      0.00%     76.68% # Type of FU issued
system.switch_cpus0.iq.FU_type_0::SimdFloatCmp            0      0.00%     76.68% # Type of FU issued
system.switch_cpus0.iq.FU_type_0::SimdFloatCvt            0      0.00%     76.68% # Type of FU issued
system.switch_cpus0.iq.FU_type_0::SimdFloatDiv            0      0.00%     76.68% # Type of FU issued
system.switch_cpus0.iq.FU_type_0::SimdFloatMisc            0      0.00%     76.68% # Type of FU issued
system.switch_cpus0.iq.FU_type_0::SimdFloatMult            0      0.00%     76.68% # Type of FU issued
system.switch_cpus0.iq.FU_type_0::SimdFloatMultAcc            0      0.00%     76.68% # Type of FU issued
system.switch_cpus0.iq.FU_type_0::SimdFloatSqrt            0      0.00%     76.68% # Type of FU issued
system.switch_cpus0.iq.FU_type_0::SimdReduceAdd            0      0.00%     76.68% # Type of FU issued
system.switch_cpus0.iq.FU_type_0::SimdReduceAlu            0      0.00%     76.68% # Type of FU issued
system.switch_cpus0.iq.FU_type_0::SimdReduceCmp            0      0.00%     76.68% # Type of FU issued
system.switch_cpus0.iq.FU_type_0::SimdFloatReduceAdd            0      0.00%     76.68% # Type of FU issued
system.switch_cpus0.iq.FU_type_0::SimdFloatReduceCmp            0      0.00%     76.68% # Type of FU issued
system.switch_cpus0.iq.FU_type_0::SimdAes            0      0.00%     76.68% # Type of FU issued
system.switch_cpus0.iq.FU_type_0::SimdAesMix            0      0.00%     76.68% # Type of FU issued
system.switch_cpus0.iq.FU_type_0::SimdSha1Hash            0      0.00%     76.68% # Type of FU issued
system.switch_cpus0.iq.FU_type_0::SimdSha1Hash2            0      0.00%     76.68% # Type of FU issued
system.switch_cpus0.iq.FU_type_0::SimdSha256Hash            0      0.00%     76.68% # Type of FU issued
system.switch_cpus0.iq.FU_type_0::SimdSha256Hash2            0      0.00%     76.68% # Type of FU issued
system.switch_cpus0.iq.FU_type_0::SimdShaSigma2            0      0.00%     76.68% # Type of FU issued
system.switch_cpus0.iq.FU_type_0::SimdShaSigma3            0      0.00%     76.68% # Type of FU issued
system.switch_cpus0.iq.FU_type_0::SimdPredAlu            0      0.00%     76.68% # Type of FU issued
system.switch_cpus0.iq.FU_type_0::MemRead     83706263     16.13%     92.81% # Type of FU issued
system.switch_cpus0.iq.FU_type_0::MemWrite     36832357      7.10%     99.91% # Type of FU issued
system.switch_cpus0.iq.FU_type_0::FloatMemRead       230490      0.04%     99.96% # Type of FU issued
system.switch_cpus0.iq.FU_type_0::FloatMemWrite       230387      0.04%    100.00% # Type of FU issued
system.switch_cpus0.iq.FU_type_0::IprAccess            0      0.00%    100.00% # Type of FU issued
system.switch_cpus0.iq.FU_type_0::InstPrefetch            0      0.00%    100.00% # Type of FU issued
system.switch_cpus0.iq.FU_type_0::total     518950341                       # Type of FU issued
system.switch_cpus0.iq.fp_alu_accesses         460877                       # Number of floating point alu accesses
system.switch_cpus0.iq.fp_inst_queue_reads       921754                       # Number of floating instruction queue reads
system.switch_cpus0.iq.fp_inst_queue_wakeup_accesses       460751                       # Number of floating instruction queue wakeup accesses
system.switch_cpus0.iq.fp_inst_queue_writes       820816                       # Number of floating instruction queue writes
system.switch_cpus0.iq.fu_busy_cnt           10914567                       # FU busy when requested
system.switch_cpus0.iq.fu_busy_rate          0.021032                       # FU busy rate (busy events/executed inst)
system.switch_cpus0.iq.fu_full::No_OpClass            0      0.00%      0.00% # attempts to use FU when none available
system.switch_cpus0.iq.fu_full::IntAlu        7542887     69.11%     69.11% # attempts to use FU when none available
system.switch_cpus0.iq.fu_full::IntMult             0      0.00%     69.11% # attempts to use FU when none available
system.switch_cpus0.iq.fu_full::IntDiv              0      0.00%     69.11% # attempts to use FU when none available
system.switch_cpus0.iq.fu_full::FloatAdd            0      0.00%     69.11% # attempts to use FU when none available
system.switch_cpus0.iq.fu_full::FloatCmp            0      0.00%     69.11% # attempts to use FU when none available
system.switch_cpus0.iq.fu_full::FloatCvt            0      0.00%     69.11% # attempts to use FU when none available
system.switch_cpus0.iq.fu_full::FloatMult            0      0.00%     69.11% # attempts to use FU when none available
system.switch_cpus0.iq.fu_full::FloatMultAcc            0      0.00%     69.11% # attempts to use FU when none available
system.switch_cpus0.iq.fu_full::FloatDiv            0      0.00%     69.11% # attempts to use FU when none available
system.switch_cpus0.iq.fu_full::FloatMisc            0      0.00%     69.11% # attempts to use FU when none available
system.switch_cpus0.iq.fu_full::FloatSqrt            0      0.00%     69.11% # attempts to use FU when none available
system.switch_cpus0.iq.fu_full::SimdAdd             0      0.00%     69.11% # attempts to use FU when none available
system.switch_cpus0.iq.fu_full::SimdAddAcc            0      0.00%     69.11% # attempts to use FU when none available
system.switch_cpus0.iq.fu_full::SimdAlu             0      0.00%     69.11% # attempts to use FU when none available
system.switch_cpus0.iq.fu_full::SimdCmp             0      0.00%     69.11% # attempts to use FU when none available
system.switch_cpus0.iq.fu_full::SimdCvt             0      0.00%     69.11% # attempts to use FU when none available
system.switch_cpus0.iq.fu_full::SimdMisc            0      0.00%     69.11% # attempts to use FU when none available
system.switch_cpus0.iq.fu_full::SimdMult            0      0.00%     69.11% # attempts to use FU when none available
system.switch_cpus0.iq.fu_full::SimdMultAcc            0      0.00%     69.11% # attempts to use FU when none available
system.switch_cpus0.iq.fu_full::SimdShift            0      0.00%     69.11% # attempts to use FU when none available
system.switch_cpus0.iq.fu_full::SimdShiftAcc            0      0.00%     69.11% # attempts to use FU when none available
system.switch_cpus0.iq.fu_full::SimdDiv             0      0.00%     69.11% # attempts to use FU when none available
system.switch_cpus0.iq.fu_full::SimdSqrt            0      0.00%     69.11% # attempts to use FU when none available
system.switch_cpus0.iq.fu_full::SimdFloatAdd            0      0.00%     69.11% # attempts to use FU when none available
system.switch_cpus0.iq.fu_full::SimdFloatAlu            0      0.00%     69.11% # attempts to use FU when none available
system.switch_cpus0.iq.fu_full::SimdFloatCmp            0      0.00%     69.11% # attempts to use FU when none available
system.switch_cpus0.iq.fu_full::SimdFloatCvt            0      0.00%     69.11% # attempts to use FU when none available
system.switch_cpus0.iq.fu_full::SimdFloatDiv            0      0.00%     69.11% # attempts to use FU when none available
system.switch_cpus0.iq.fu_full::SimdFloatMisc            0      0.00%     69.11% # attempts to use FU when none available
system.switch_cpus0.iq.fu_full::SimdFloatMult            0      0.00%     69.11% # attempts to use FU when none available
system.switch_cpus0.iq.fu_full::SimdFloatMultAcc            0      0.00%     69.11% # attempts to use FU when none available
system.switch_cpus0.iq.fu_full::SimdFloatSqrt            0      0.00%     69.11% # attempts to use FU when none available
system.switch_cpus0.iq.fu_full::SimdReduceAdd            0      0.00%     69.11% # attempts to use FU when none available
system.switch_cpus0.iq.fu_full::SimdReduceAlu            0      0.00%     69.11% # attempts to use FU when none available
system.switch_cpus0.iq.fu_full::SimdReduceCmp            0      0.00%     69.11% # attempts to use FU when none available
system.switch_cpus0.iq.fu_full::SimdFloatReduceAdd            0      0.00%     69.11% # attempts to use FU when none available
system.switch_cpus0.iq.fu_full::SimdFloatReduceCmp            0      0.00%     69.11% # attempts to use FU when none available
system.switch_cpus0.iq.fu_full::SimdAes             0      0.00%     69.11% # attempts to use FU when none available
system.switch_cpus0.iq.fu_full::SimdAesMix            0      0.00%     69.11% # attempts to use FU when none available
system.switch_cpus0.iq.fu_full::SimdSha1Hash            0      0.00%     69.11% # attempts to use FU when none available
system.switch_cpus0.iq.fu_full::SimdSha1Hash2            0      0.00%     69.11% # attempts to use FU when none available
system.switch_cpus0.iq.fu_full::SimdSha256Hash            0      0.00%     69.11% # attempts to use FU when none available
system.switch_cpus0.iq.fu_full::SimdSha256Hash2            0      0.00%     69.11% # attempts to use FU when none available
system.switch_cpus0.iq.fu_full::SimdShaSigma2            0      0.00%     69.11% # attempts to use FU when none available
system.switch_cpus0.iq.fu_full::SimdShaSigma3            0      0.00%     69.11% # attempts to use FU when none available
system.switch_cpus0.iq.fu_full::SimdPredAlu            0      0.00%     69.11% # attempts to use FU when none available
system.switch_cpus0.iq.fu_full::MemRead       2427983     22.25%     91.35% # attempts to use FU when none available
system.switch_cpus0.iq.fu_full::MemWrite       943697      8.65%    100.00% # attempts to use FU when none available
system.switch_cpus0.iq.fu_full::FloatMemRead            0      0.00%    100.00% # attempts to use FU when none available
system.switch_cpus0.iq.fu_full::FloatMemWrite            0      0.00%    100.00% # attempts to use FU when none available
system.switch_cpus0.iq.fu_full::IprAccess            0      0.00%    100.00% # attempts to use FU when none available
system.switch_cpus0.iq.fu_full::InstPrefetch            0      0.00%    100.00% # attempts to use FU when none available
system.switch_cpus0.iq.int_alu_accesses     528084733                       # Number of integer alu accesses
system.switch_cpus0.iq.int_inst_queue_reads   1232711316                       # Number of integer instruction queue reads
system.switch_cpus0.iq.int_inst_queue_wakeup_accesses    509415620                       # Number of integer instruction queue wakeup accesses
system.switch_cpus0.iq.int_inst_queue_writes    802593078                       # Number of integer instruction queue writes
system.switch_cpus0.iq.iqInstsAdded         603723062                       # Number of instructions added to the IQ (excludes non-spec)
system.switch_cpus0.iq.iqInstsIssued        518950341                       # Number of instructions issued
system.switch_cpus0.iq.iqSquashedInstsExamined    199586105                       # Number of squashed instructions iterated over during squash; mainly for profiling
system.switch_cpus0.iq.iqSquashedInstsIssued      1403305                       # Number of squashed instructions issued
system.switch_cpus0.iq.iqSquashedOperandsExamined    306519969                       # Number of squashed operands that are examined and possibly removed from graph
system.switch_cpus0.iq.issued_per_cycle::samples    183414520                       # Number of insts issued each cycle
system.switch_cpus0.iq.issued_per_cycle::mean     2.829385                       # Number of insts issued each cycle
system.switch_cpus0.iq.issued_per_cycle::stdev     2.556755                       # Number of insts issued each cycle
system.switch_cpus0.iq.issued_per_cycle::underflows            0      0.00%      0.00% # Number of insts issued each cycle
system.switch_cpus0.iq.issued_per_cycle::0     55562482     30.29%     30.29% # Number of insts issued each cycle
system.switch_cpus0.iq.issued_per_cycle::1     16012069      8.73%     39.02% # Number of insts issued each cycle
system.switch_cpus0.iq.issued_per_cycle::2     19956032     10.88%     49.90% # Number of insts issued each cycle
system.switch_cpus0.iq.issued_per_cycle::3     20320774     11.08%     60.98% # Number of insts issued each cycle
system.switch_cpus0.iq.issued_per_cycle::4     19493434     10.63%     71.61% # Number of insts issued each cycle
system.switch_cpus0.iq.issued_per_cycle::5     16536152      9.02%     80.63% # Number of insts issued each cycle
system.switch_cpus0.iq.issued_per_cycle::6     16003933      8.73%     89.35% # Number of insts issued each cycle
system.switch_cpus0.iq.issued_per_cycle::7     10851360      5.92%     95.27% # Number of insts issued each cycle
system.switch_cpus0.iq.issued_per_cycle::8      8678284      4.73%    100.00% # Number of insts issued each cycle
system.switch_cpus0.iq.issued_per_cycle::overflows            0      0.00%    100.00% # Number of insts issued each cycle
system.switch_cpus0.iq.issued_per_cycle::min_value            0                       # Number of insts issued each cycle
system.switch_cpus0.iq.issued_per_cycle::max_value            8                       # Number of insts issued each cycle
system.switch_cpus0.iq.issued_per_cycle::total    183414520                       # Number of insts issued each cycle
system.switch_cpus0.iq.rate                  2.827412                       # Inst issue rate
system.switch_cpus0.iq.vec_alu_accesses             0                       # Number of vector alu accesses
system.switch_cpus0.iq.vec_inst_queue_reads            0                       # Number of vector instruction queue reads
system.switch_cpus0.iq.vec_inst_queue_wakeup_accesses            0                       # Number of vector instruction queue wakeup accesses
system.switch_cpus0.iq.vec_inst_queue_writes            0                       # Number of vector instruction queue writes
system.switch_cpus0.memDep0.conflictingLoads     14943360                       # Number of conflicting loads.
system.switch_cpus0.memDep0.conflictingStores      6587572                       # Number of conflicting stores.
system.switch_cpus0.memDep0.insertedLoads     94549936                       # Number of loads inserted to the mem dependence unit.
system.switch_cpus0.memDep0.insertedStores     43404588                       # Number of stores inserted to the mem dependence unit.
system.switch_cpus0.misc_regfile_reads      222529868                       # number of misc regfile reads
system.switch_cpus0.misc_regfile_writes             1                       # number of misc regfile writes
system.switch_cpus0.numCycles               183542506                       # number of cpu cycles simulated
system.switch_cpus0.numWorkItemsCompleted            0                       # number of work items this cpu completed
system.switch_cpus0.numWorkItemsStarted             0                       # number of work items this cpu started
system.switch_cpus0.timesIdled                   3441                       # Number of times that the entire CPU went into an idle state and unscheduled itself
system.switch_cpus1.cc_regfile_reads        223626514                       # number of cc regfile reads
system.switch_cpus1.cc_regfile_writes       199565093                       # number of cc regfile writes
system.switch_cpus1.committedInsts          249999938                       # Number of Instructions Simulated
system.switch_cpus1.committedOps            404136764                       # Number of Ops (including micro ops) Simulated
system.switch_cpus1.cpi                      0.734170                       # CPI: Cycles Per Instruction
system.switch_cpus1.cpi_total                0.734170                       # CPI: Total CPI of All Threads
system.switch_cpus1.fp_regfile_reads           230372                       # number of floating regfile reads
system.switch_cpus1.fp_regfile_writes          230479                       # number of floating regfile writes
system.switch_cpus1.idleCycles                 125515                       # Total number of cycles that the CPU has spent unscheduled due to idling
system.switch_cpus1.iew.branchMispredicts      3351242                       # Number of branch mispredicts detected at execute
system.switch_cpus1.iew.exec_branches        44017370                       # Number of branches executed
system.switch_cpus1.iew.exec_nop                    0                       # number of nop insts executed
system.switch_cpus1.iew.exec_rate            2.790777                       # Inst execution rate
system.switch_cpus1.iew.exec_refs           118452301                       # number of memory reference insts executed
system.switch_cpus1.iew.exec_stores          36239292                       # Number of stores executed
system.switch_cpus1.iew.exec_swp                    0                       # number of swp insts executed
system.switch_cpus1.iew.iewBlockCycles       26326892                       # Number of cycles IEW is blocking
system.switch_cpus1.iew.iewDispLoadInsts     94558852                       # Number of dispatched load instructions
system.switch_cpus1.iew.iewDispNonSpecInsts            0                       # Number of dispatched non-speculative instructions
system.switch_cpus1.iew.iewDispSquashedInsts        84752                       # Number of squashed instructions skipped by dispatch
system.switch_cpus1.iew.iewDispStoreInsts     43408894                       # Number of dispatched store instructions
system.switch_cpus1.iew.iewDispatchedInsts    603784289                       # Number of instructions dispatched to IQ
system.switch_cpus1.iew.iewExecLoadInsts     82213009                       # Number of load instructions executed
system.switch_cpus1.iew.iewExecSquashedInsts      6772727                       # Number of squashed instructions skipped in execute
system.switch_cpus1.iew.iewExecutedInsts    512226260                       # Number of executed instructions
system.switch_cpus1.iew.iewIQFullEvents         46650                       # Number of times the IQ has become full, causing a stall
system.switch_cpus1.iew.iewIdleCycles               0                       # Number of cycles IEW is idle
system.switch_cpus1.iew.iewLSQFullEvents        50975                       # Number of times the LSQ has become full, causing a stall
system.switch_cpus1.iew.iewSquashCycles       3014700                       # Number of cycles IEW is squashing
system.switch_cpus1.iew.iewUnblockCycles       111633                       # Number of cycles IEW is unblocking
system.switch_cpus1.iew.memOrderViolationEvents       110375                       # Number of memory order violations
system.switch_cpus1.iew.predictedNotTakenIncorrect      1669627                       # Number of branches that were predicted not taken incorrectly
system.switch_cpus1.iew.predictedTakenIncorrect      1681615                       # Number of branches that were predicted taken incorrectly
system.switch_cpus1.iew.wb_consumers        664640550                       # num instructions consuming a value
system.switch_cpus1.iew.wb_count            509919588                       # cumulative count of insts written-back
system.switch_cpus1.iew.wb_fanout            0.583374                       # average fanout of values written-back
system.switch_cpus1.iew.wb_producers        387734204                       # num instructions producing a value
system.switch_cpus1.iew.wb_rate              2.778210                       # insts written-back per cycle
system.switch_cpus1.iew.wb_sent             511538911                       # cumulative count of insts sent to commit
system.switch_cpus1.int_regfile_reads       795888182                       # number of integer regfile reads
system.switch_cpus1.int_regfile_writes      434673672                       # number of integer regfile writes
system.switch_cpus1.ipc                      1.362082                       # IPC: Instructions Per Cycle
system.switch_cpus1.ipc_total                1.362082                       # IPC: Total IPC of All Threads
system.switch_cpus1.iq.FU_type_0::No_OpClass      1319410      0.25%      0.25% # Type of FU issued
system.switch_cpus1.iq.FU_type_0::IntAlu    392333674     75.59%     75.85% # Type of FU issued
system.switch_cpus1.iq.FU_type_0::IntMult      3433714      0.66%     76.51% # Type of FU issued
system.switch_cpus1.iq.FU_type_0::IntDiv       893720      0.17%     76.68% # Type of FU issued
system.switch_cpus1.iq.FU_type_0::FloatAdd            0      0.00%     76.68% # Type of FU issued
system.switch_cpus1.iq.FU_type_0::FloatCmp            0      0.00%     76.68% # Type of FU issued
system.switch_cpus1.iq.FU_type_0::FloatCvt            0      0.00%     76.68% # Type of FU issued
system.switch_cpus1.iq.FU_type_0::FloatMult            0      0.00%     76.68% # Type of FU issued
system.switch_cpus1.iq.FU_type_0::FloatMultAcc            0      0.00%     76.68% # Type of FU issued
system.switch_cpus1.iq.FU_type_0::FloatDiv            0      0.00%     76.68% # Type of FU issued
system.switch_cpus1.iq.FU_type_0::FloatMisc            0      0.00%     76.68% # Type of FU issued
system.switch_cpus1.iq.FU_type_0::FloatSqrt            0      0.00%     76.68% # Type of FU issued
system.switch_cpus1.iq.FU_type_0::SimdAdd            0      0.00%     76.68% # Type of FU issued
system.switch_cpus1.iq.FU_type_0::SimdAddAcc            0      0.00%     76.68% # Type of FU issued
system.switch_cpus1.iq.FU_type_0::SimdAlu            0      0.00%     76.68% # Type of FU issued
system.switch_cpus1.iq.FU_type_0::SimdCmp            0      0.00%     76.68% # Type of FU issued
system.switch_cpus1.iq.FU_type_0::SimdCvt            0      0.00%     76.68% # Type of FU issued
system.switch_cpus1.iq.FU_type_0::SimdMisc            0      0.00%     76.68% # Type of FU issued
system.switch_cpus1.iq.FU_type_0::SimdMult            0      0.00%     76.68% # Type of FU issued
system.switch_cpus1.iq.FU_type_0::SimdMultAcc            0      0.00%     76.68% # Type of FU issued
system.switch_cpus1.iq.FU_type_0::SimdShift            0      0.00%     76.68% # Type of FU issued
system.switch_cpus1.iq.FU_type_0::SimdShiftAcc            0      0.00%     76.68% # Type of FU issued
system.switch_cpus1.iq.FU_type_0::SimdDiv            0      0.00%     76.68% # Type of FU issued
system.switch_cpus1.iq.FU_type_0::SimdSqrt            0      0.00%     76.68% # Type of FU issued
system.switch_cpus1.iq.FU_type_0::SimdFloatAdd            0      0.00%     76.68% # Type of FU issued
system.switch_cpus1.iq.FU_type_0::SimdFloatAlu            0      0.00%     76.68% # Type of FU issued
system.switch_cpus1.iq.FU_type_0::SimdFloatCmp            0      0.00%     76.68% # Type of FU issued
system.switch_cpus1.iq.FU_type_0::SimdFloatCvt            0      0.00%     76.68% # Type of FU issued
system.switch_cpus1.iq.FU_type_0::SimdFloatDiv            0      0.00%     76.68% # Type of FU issued
system.switch_cpus1.iq.FU_type_0::SimdFloatMisc            0      0.00%     76.68% # Type of FU issued
system.switch_cpus1.iq.FU_type_0::SimdFloatMult            0      0.00%     76.68% # Type of FU issued
system.switch_cpus1.iq.FU_type_0::SimdFloatMultAcc            0      0.00%     76.68% # Type of FU issued
system.switch_cpus1.iq.FU_type_0::SimdFloatSqrt            0      0.00%     76.68% # Type of FU issued
system.switch_cpus1.iq.FU_type_0::SimdReduceAdd            0      0.00%     76.68% # Type of FU issued
system.switch_cpus1.iq.FU_type_0::SimdReduceAlu            0      0.00%     76.68% # Type of FU issued
system.switch_cpus1.iq.FU_type_0::SimdReduceCmp            0      0.00%     76.68% # Type of FU issued
system.switch_cpus1.iq.FU_type_0::SimdFloatReduceAdd            0      0.00%     76.68% # Type of FU issued
system.switch_cpus1.iq.FU_type_0::SimdFloatReduceCmp            0      0.00%     76.68% # Type of FU issued
system.switch_cpus1.iq.FU_type_0::SimdAes            0      0.00%     76.68% # Type of FU issued
system.switch_cpus1.iq.FU_type_0::SimdAesMix            0      0.00%     76.68% # Type of FU issued
system.switch_cpus1.iq.FU_type_0::SimdSha1Hash            0      0.00%     76.68% # Type of FU issued
[...]
system.switch_cpus3.commit.numCommittedDist::1     32274579     20.61%     50.98% # Number of insts commited each cycle
system.switch_cpus3.commit.numCommittedDist::2     17346348     11.08%     62.06% # Number of insts commited each cycle
system.switch_cpus3.commit.numCommittedDist::3     16214625     10.35%     72.41% # Number of insts commited each cycle
system.switch_cpus3.commit.numCommittedDist::4      8751923      5.59%     78.00% # Number of insts commited each cycle
system.switch_cpus3.commit.numCommittedDist::5      4359829      2.78%     80.78% # Number of insts commited each cycle
system.switch_cpus3.commit.numCommittedDist::6      3357797      2.14%     82.93% # Number of insts commited each cycle
system.switch_cpus3.commit.numCommittedDist::7      2532469      1.62%     84.54% # Number of insts commited each cycle
system.switch_cpus3.commit.numCommittedDist::8     24208337     15.46%    100.00% # Number of insts commited each cycle
system.switch_cpus3.commit.numCommittedDist::overflows            0      0.00%    100.00% # Number of insts commited each cycle
system.switch_cpus3.commit.numCommittedDist::min_value            0                       # Number of insts commited each cycle
system.switch_cpus3.commit.numCommittedDist::max_value            8                       # Number of insts commited each cycle
system.switch_cpus3.commit.numCommittedDist::total    156616817                       # Number of insts commited each cycle
system.switch_cpus3.commit.instsCommitted    249890165                       # Number of instructions committed
system.switch_cpus3.commit.opsCommitted     403958748                       # Number of ops (including micro ops) committed
system.switch_cpus3.commit.memRefs           93092055                       # Number of memory references committed
system.switch_cpus3.commit.loads             63223879                       # Number of loads committed
system.switch_cpus3.commit.amos                     0                       # Number of atomic instructions committed
system.switch_cpus3.commit.membars                  0                       # Number of memory barriers committed
system.switch_cpus3.commit.branches          36122468                       # Number of branches committed
system.switch_cpus3.commit.vector                   0                       # Number of committed Vector instructions.
system.switch_cpus3.commit.floating            458864                       # Number of committed floating point instructions.
system.switch_cpus3.commit.integer          402574893                       # Number of committed integer instructions.
system.switch_cpus3.commit.functionCalls      4794329                       # Number of function calls committed.
system.switch_cpus3.commit.committedInstType_0::No_OpClass       946008      0.23%      0.23% # Class of committed instruction
system.switch_cpus3.commit.committedInstType_0::IntAlu    305734126     75.68%     75.92% # Class of committed instruction
system.switch_cpus3.commit.committedInstType_0::IntMult      3316751      0.82%     76.74% # Class of committed instruction
system.switch_cpus3.commit.committedInstType_0::IntDiv       869808      0.22%     76.96% # Class of committed instruction
system.switch_cpus3.commit.committedInstType_0::FloatAdd            0      0.00%     76.96% # Class of committed instruction
system.switch_cpus3.commit.committedInstType_0::FloatCmp            0      0.00%     76.96% # Class of committed instruction
system.switch_cpus3.commit.committedInstType_0::FloatCvt            0      0.00%     76.96% # Class of committed instruction
system.switch_cpus3.commit.committedInstType_0::FloatMult            0      0.00%     76.96% # Class of committed instruction
system.switch_cpus3.commit.committedInstType_0::FloatMultAcc            0      0.00%     76.96% # Class of committed instruction
system.switch_cpus3.commit.committedInstType_0::FloatDiv            0      0.00%     76.96% # Class of committed instruction
system.switch_cpus3.commit.committedInstType_0::FloatMisc            0      0.00%     76.96% # Class of committed instruction
system.switch_cpus3.commit.committedInstType_0::FloatSqrt            0      0.00%     76.96% # Class of committed instruction
system.switch_cpus3.commit.committedInstType_0::SimdAdd            0      0.00%     76.96% # Class of committed instruction
system.switch_cpus3.commit.committedInstType_0::SimdAddAcc            0      0.00%     76.96% # Class of committed instruction
system.switch_cpus3.commit.committedInstType_0::SimdAlu            0      0.00%     76.96% # Class of committed instruction
system.switch_cpus3.commit.committedInstType_0::SimdCmp            0      0.00%     76.96% # Class of committed instruction
system.switch_cpus3.commit.committedInstType_0::SimdCvt            0      0.00%     76.96% # Class of committed instruction
system.switch_cpus3.commit.committedInstType_0::SimdMisc            0      0.00%     76.96% # Class of committed instruction
system.switch_cpus3.commit.committedInstType_0::SimdMult            0      0.00%     76.96% # Class of committed instruction
system.switch_cpus3.commit.committedInstType_0::SimdMultAcc            0      0.00%     76.96% # Class of committed instruction
system.switch_cpus3.commit.committedInstType_0::SimdShift            0      0.00%     76.96% # Class of committed instruction
system.switch_cpus3.commit.committedInstType_0::SimdShiftAcc            0      0.00%     76.96% # Class of committed instruction
system.switch_cpus3.commit.committedInstType_0::SimdDiv            0      0.00%     76.96% # Class of committed instruction
system.switch_cpus3.commit.committedInstType_0::SimdSqrt            0      0.00%     76.96% # Class of committed instruction
system.switch_cpus3.commit.committedInstType_0::SimdFloatAdd            0      0.00%     76.96% # Class of committed instruction
system.switch_cpus3.commit.committedInstType_0::SimdFloatAlu            0      0.00%     76.96% # Class of committed instruction
system.switch_cpus3.commit.committedInstType_0::SimdFloatCmp            0      0.00%     76.96% # Class of committed instruction
system.switch_cpus3.commit.committedInstType_0::SimdFloatCvt            0      0.00%     76.96% # Class of committed instruction
system.switch_cpus3.commit.committedInstType_0::SimdFloatDiv            0      0.00%     76.96% # Class of committed instruction
system.switch_cpus3.commit.committedInstType_0::SimdFloatMisc            0      0.00%     76.96% # Class of committed instruction
system.switch_cpus3.commit.committedInstType_0::SimdFloatMult            0      0.00%     76.96% # Class of committed instruction
system.switch_cpus3.commit.committedInstType_0::SimdFloatMultAcc            0      0.00%     76.96% # Class of committed instruction
system.switch_cpus3.commit.committedInstType_0::SimdFloatSqrt            0      0.00%     76.96% # Class of committed instruction
system.switch_cpus3.commit.committedInstType_0::SimdReduceAdd            0      0.00%     76.96% # Class of committed instruction
system.switch_cpus3.commit.committedInstType_0::SimdReduceAlu            0      0.00%     76.96% # Class of committed instruction
system.switch_cpus3.commit.committedInstType_0::SimdReduceCmp            0      0.00%     76.96% # Class of committed instruction
system.switch_cpus3.commit.committedInstType_0::SimdFloatReduceAdd            0      0.00%     76.96% # Class of committed instruction
system.switch_cpus3.commit.committedInstType_0::SimdFloatReduceCmp            0      0.00%     76.96% # Class of committed instruction
system.switch_cpus3.commit.committedInstType_0::SimdAes            0      0.00%     76.96% # Class of committed instruction
system.switch_cpus3.commit.committedInstType_0::SimdAesMix            0      0.00%     76.96% # Class of committed instruction
system.switch_cpus3.commit.committedInstType_0::SimdSha1Hash            0      0.00%     76.96% # Class of committed instruction
system.switch_cpus3.commit.committedInstType_0::SimdSha1Hash2            0      0.00%     76.96% # Class of committed instruction
system.switch_cpus3.commit.committedInstType_0::SimdSha256Hash            0      0.00%     76.96% # Class of committed instruction
system.switch_cpus3.commit.committedInstType_0::SimdSha256Hash2            0      0.00%     76.96% # Class of committed instruction
system.switch_cpus3.commit.committedInstType_0::SimdShaSigma2            0      0.00%     76.96% # Class of committed instruction
system.switch_cpus3.commit.committedInstType_0::SimdShaSigma3            0      0.00%     76.96% # Class of committed instruction
system.switch_cpus3.commit.committedInstType_0::SimdPredAlu            0      0.00%     76.96% # Class of committed instruction
system.switch_cpus3.commit.committedInstType_0::MemRead     62994447     15.59%     92.55% # Class of committed instruction
system.switch_cpus3.commit.committedInstType_0::MemWrite     29638744      7.34%     99.89% # Class of committed instruction
system.switch_cpus3.commit.committedInstType_0::FloatMemRead       229432      0.06%     99.94% # Class of committed instruction
system.switch_cpus3.commit.committedInstType_0::FloatMemWrite       229432      0.06%    100.00% # Class of committed instruction
system.switch_cpus3.commit.committedInstType_0::IprAccess            0      0.00%    100.00% # Class of committed instruction
system.switch_cpus3.commit.committedInstType_0::InstPrefetch            0      0.00%    100.00% # Class of committed instruction
system.switch_cpus3.commit.committedInstType_0::total    403958748                       # Class of committed instruction
system.switch_cpus3.commit.commitEligibleSamples     24208337                       # number cycles where commit BW limit reached
system.switch_cpus3.decode.idleCycles        17771318                       # Number of cycles decode is idle
system.switch_cpus3.decode.blockedCycles     72064608                       # Number of cycles decode is blocked
system.switch_cpus3.decode.runCycles         68490364                       # Number of cycles decode is running
system.switch_cpus3.decode.unblockCycles     22075691                       # Number of cycles decode is unblocking
system.switch_cpus3.decode.squashCycles       3013424                       # Number of cycles decode is squashing
system.switch_cpus3.decode.branchResolved     30455363                       # Number of times decode resolved a  branch
system.switch_cpus3.decode.branchMispred       254180                       # Number of times decode detected a branch misprediction
system.switch_cpus3.decode.decodedInsts     651633397                       # Number of instructions handled by decode
system.switch_cpus3.decode.squashedInsts      1162703                       # Number of squashed instructions handled by decode
system.switch_cpus3.dtb.rdAccesses           82177628                       # TLB accesses on read requests
system.switch_cpus3.dtb.wrAccesses           36222592                       # TLB accesses on write requests
system.switch_cpus3.dtb.rdMisses                57680                       # TLB misses on read requests
system.switch_cpus3.dtb.wrMisses                 1471                       # TLB misses on write requests
system.switch_cpus3.dtb.walker.power_state.pwrStateResidencyTicks::UNDEFINED 16607502298242                       # Cumulative time (in ticks) in various power states
system.switch_cpus3.fetch.icacheStallCycles      5118805                       # Number of cycles fetch is stalled on an Icache miss
system.switch_cpus3.fetch.insts             443582005                       # Number of instructions fetch has processed
system.switch_cpus3.fetch.branches           65093191                       # Number of branches that fetch encountered
system.switch_cpus3.fetch.predictedBranches     41400801                       # Number of branches that fetch has predicted taken
system.switch_cpus3.fetch.cycles            175034599                       # Number of cycles fetch has run and was not squashing or blocked
system.switch_cpus3.fetch.squashCycles        6523684                       # Number of cycles fetch has spent squashing
system.switch_cpus3.fetch.miscStallCycles           22                       # Number of cycles fetch has spent waiting on interrupts,or bad addresses, or out of MSHRs
system.switch_cpus3.fetch.pendingTrapStallCycles          140                       # Number of stall cycles due to pending traps
system.switch_cpus3.fetch.cacheLines         66224509                       # Number of cache lines fetched
system.switch_cpus3.fetch.icacheSquashes        68208                       # Number of outstanding Icache misses that were squashed
system.switch_cpus3.fetch.nisnDist::samples    183415408                       # Number of instructions fetched each cycle (Total)
system.switch_cpus3.fetch.nisnDist::mean     3.900410                       # Number of instructions fetched each cycle (Total)
system.switch_cpus3.fetch.nisnDist::stdev     3.361145                       # Number of instructions fetched each cycle (Total)
system.switch_cpus3.fetch.nisnDist::underflows            0      0.00%      0.00% # Number of instructions fetched each cycle (Total)
system.switch_cpus3.fetch.nisnDist::0        59986495     32.71%     32.71% # Number of instructions fetched each cycle (Total)
system.switch_cpus3.fetch.nisnDist::1         9083962      4.95%     37.66% # Number of instructions fetched each cycle (Total)
system.switch_cpus3.fetch.nisnDist::2         8905854      4.86%     42.51% # Number of instructions fetched each cycle (Total)
system.switch_cpus3.fetch.nisnDist::3         8273745      4.51%     47.02% # Number of instructions fetched each cycle (Total)
system.switch_cpus3.fetch.nisnDist::4         9158488      4.99%     52.02% # Number of instructions fetched each cycle (Total)
system.switch_cpus3.fetch.nisnDist::5        16614154      9.06%     61.08% # Number of instructions fetched each cycle (Total)
system.switch_cpus3.fetch.nisnDist::6         9879349      5.39%     66.46% # Number of instructions fetched each cycle (Total)
system.switch_cpus3.fetch.nisnDist::7         7409295      4.04%     70.50% # Number of instructions fetched each cycle (Total)
system.switch_cpus3.fetch.nisnDist::8        54104066     29.50%    100.00% # Number of instructions fetched each cycle (Total)
system.switch_cpus3.fetch.nisnDist::overflows            0      0.00%    100.00% # Number of instructions fetched each cycle (Total)
system.switch_cpus3.fetch.nisnDist::min_value            0                       # Number of instructions fetched each cycle (Total)
system.switch_cpus3.fetch.nisnDist::max_value            8                       # Number of instructions fetched each cycle (Total)
system.switch_cpus3.fetch.nisnDist::total    183415408                       # Number of instructions fetched each cycle (Total)
system.switch_cpus3.fetch.branchRate         0.354649                       # Number of branch fetches per cycle
system.switch_cpus3.fetch.rate               2.416781                       # Number of inst fetches per cycle
system.switch_cpus3.itb.rdAccesses                  0                       # TLB accesses on read requests
system.switch_cpus3.itb.wrAccesses           66224531                       # TLB accesses on write requests
system.switch_cpus3.itb.rdMisses                    0                       # TLB misses on read requests
system.switch_cpus3.itb.wrMisses                   48                       # TLB misses on write requests
system.switch_cpus3.itb.walker.power_state.pwrStateResidencyTicks::UNDEFINED 16607502298242                       # Cumulative time (in ticks) in various power states
system.switch_cpus3.lsq0.forwLoads           13321330                       # Number of loads that had data forwarded from stores
system.switch_cpus3.lsq0.squashedLoads       31294087                       # Number of loads squashed
system.switch_cpus3.lsq0.ignoredResponses        50659                       # Number of memory responses ignored because the instruction is squashed
system.switch_cpus3.lsq0.memOrderViolation       110231                       # Number of memory ordering violations
system.switch_cpus3.lsq0.squashedStores      13522074                       # Number of stores squashed
system.switch_cpus3.lsq0.rescheduledLoads         4059                       # Number of loads that were rescheduled
system.switch_cpus3.lsq0.blockedByCache             0                       # Number of times an access to memory failed due to the cache being blocked
system.switch_cpus3.power_state.pwrStateResidencyTicks::OFF  61119664821                       # Cumulative time (in ticks) in various power states
system.switch_cpus3.rename.squashCycles       3013424                       # Number of cycles rename is squashing
system.switch_cpus3.rename.idleCycles        26814174                       # Number of cycles rename is idle
system.switch_cpus3.rename.blockCycles       40254922                       # Number of cycles rename is blocking
system.switch_cpus3.rename.serializeStallCycles            0                       # count of cycles rename stalledfor serializing inst
system.switch_cpus3.rename.runCycles         81098474                       # Number of cycles rename is running
system.switch_cpus3.rename.unblockCycles     32234411                       # Number of cycles rename is unblocking
system.switch_cpus3.rename.renamedInsts     634020254                       # Number of instructions processed by rename
system.switch_cpus3.rename.ROBFullEvents       878256                       # Number of times rename has blocked due to ROB full
system.switch_cpus3.rename.IQFullEvents      25403626                       # Number of times rename has blocked due to IQ full
system.switch_cpus3.rename.LQFullEvents       1705471                       # Number of times rename has blocked due to LQ full
system.switch_cpus3.rename.SQFullEvents        268689                       # Number of times rename has blocked due to SQ full
system.switch_cpus3.rename.fullRegistersEvents           43                       # Number of times there has been no free registers
system.switch_cpus3.rename.renamedOperands    816880434                       # Number of destination operands rename has renamed
system.switch_cpus3.rename.lookups         1622853944                       # Number of register rename lookups that rename has made
system.switch_cpus3.rename.intLookups      1037514539                       # Number of integer rename lookups
system.switch_cpus3.rename.fpLookups           324133                       # Number of floating rename lookups
system.switch_cpus3.rename.committedMaps    520949679                       # Number of HB maps that are committed
system.switch_cpus3.rename.undoneMaps       295930606                       # Number of HB maps that are undone due to squashing
system.switch_cpus3.rename.serializing              0                       # count of serializing insts renamed
system.switch_cpus3.rename.tempSerializing            0                       # count of temporary serializing insts renamed
system.switch_cpus3.rename.skidInsts         84070018                       # count of insts added to the skid buffer
system.switch_cpus3.rob.reads               735920329                       # The number of ROB reads
system.switch_cpus3.rob.writes             1233897298                       # The number of ROB writes
system.switch_cpus3.thread0.numInsts        249890165                       # Number of Instructions committed
system.switch_cpus3.thread0.numOps          403958748                       # Number of Ops committed
system.switch_cpus3.thread0.numMemRefs              0                       # Number of Memory References
system.voltage_domain.voltage                       1                       # Voltage in Volts

---------- End Simulation Statistics   ----------
