
---------- Begin Simulation Statistics ----------
final_tick                               16848450067617                       # Number of ticks from beginning of simulation (restored from checkpoints and never reset)
host_inst_rate                                 103163                       # Simulator instruction rate (inst/s)
host_mem_usage                               17215648                       # Number of bytes of host memory used
host_op_rate                                   176730                       # Simulator op (including micro ops) rate (op/s)
host_seconds                                  6162.95                       # Real time elapsed on the host
host_tick_rate                                5403125                       # Simulator tick rate (ticks/s)
sim_freq                                 1000000000000                       # Frequency of simulated ticks
sim_insts                                   635790255                       # Number of instructions simulated
sim_ops                                    1089177271                       # Number of ops (including micro ops) simulated
sim_seconds                                  0.033299                       # Number of seconds simulated
sim_ticks                                 33299199135                       # Number of ticks simulated
system.cpu0.Branches                                1                       # Number of branches fetched
system.cpu0.committedInsts                         13                       # Number of instructions committed
system.cpu0.committedOps                           22                       # Number of ops (including micro ops) committed
system.cpu0.idle_fraction                           0                       # Percentage of idle cycles
system.cpu0.l2bus.snoop_filter.hit_multi_requests          603                       # Number of requests hitting in the snoop filter with multiple (>1) holders of the requested data.
system.cpu0.l2bus.snoop_filter.hit_multi_snoops            0                       # Number of snoops hitting in the snoop filter with multiple (>1) holders of the requested data.
system.cpu0.l2bus.snoop_filter.hit_single_requests      1455582                       # Number of requests hitting in the snoop filter with a single holder of the requested data.
system.cpu0.l2bus.snoop_filter.hit_single_snoops         2247                       # Number of snoops hitting in the snoop filter with a single holder of the requested data.
system.cpu0.l2bus.snoop_filter.tot_requests      2912131                       # Total number of requests made to the snoop filter.
system.cpu0.l2bus.snoop_filter.tot_snoops         2247                       # Total number of snoops made to the snoop filter.
system.cpu0.mmucache.mmubus.snoop_filter.hit_multi_requests            0                       # Number of requests hitting in the snoop filter with multiple (>1) holders of the requested data.
system.cpu0.mmucache.mmubus.snoop_filter.hit_multi_snoops            0                       # Number of snoops hitting in the snoop filter with multiple (>1) holders of the requested data.
system.cpu0.mmucache.mmubus.snoop_filter.hit_single_requests            0                       # Number of requests hitting in the snoop filter with a single holder of the requested data.
system.cpu0.mmucache.mmubus.snoop_filter.hit_single_snoops            0                       # Number of snoops hitting in the snoop filter with a single holder of the requested data.
system.cpu0.mmucache.mmubus.snoop_filter.tot_requests            0                       # Total number of requests made to the snoop filter.
system.cpu0.mmucache.mmubus.snoop_filter.tot_snoops            0                       # Total number of snoops made to the snoop filter.
system.cpu0.not_idle_fraction                       1                       # Percentage of non-idle cycles
system.cpu0.numCycles                              30                       # number of cpu cycles simulated
system.cpu0.numWorkItemsCompleted                   0                       # number of work items this cpu completed
system.cpu0.numWorkItemsStarted                     0                       # number of work items this cpu started
system.cpu0.num_busy_cycles                        30                       # Number of busy cycles
system.cpu0.num_cc_register_reads                   6                       # number of times the CC registers were read
system.cpu0.num_cc_register_writes                  4                       # number of times the CC registers were written
system.cpu0.num_conditional_control_insts            1                       # number of instructions that are conditional controls
system.cpu0.num_fp_alu_accesses                    13                       # Number of float alu accesses
system.cpu0.num_fp_insts                           13                       # number of float instructions
system.cpu0.num_fp_register_reads                  25                       # number of times the floating registers were read
system.cpu0.num_fp_register_writes                 12                       # number of times the floating registers were written
system.cpu0.num_func_calls                          0                       # number of times a function call or return occured
system.cpu0.num_idle_cycles                         0                       # Number of idle cycles
system.cpu0.num_int_alu_accesses                   13                       # Number of integer alu accesses
system.cpu0.num_int_insts                          13                       # number of integer instructions
system.cpu0.num_int_register_reads                 23                       # number of times the integer registers were read
system.cpu0.num_int_register_writes                 9                       # number of times the integer registers were written
system.cpu0.num_load_insts                          3                       # Number of load instructions
system.cpu0.num_mem_refs                            3                       # number of memory refs
system.cpu0.num_store_insts                         0                       # Number of store instructions
system.cpu0.num_vec_alu_accesses                    0                       # Number of vector alu accesses
system.cpu0.num_vec_insts                           0                       # number of vector instructions
system.cpu0.num_vec_register_reads                  0                       # number of times the vector registers were read
system.cpu0.num_vec_register_writes                 0                       # number of times the vector registers were written
system.cpu0.op_class::No_OpClass                    0      0.00%      0.00% # Class of executed instruction
system.cpu0.op_class::IntAlu                        9     40.91%     40.91% # Class of executed instruction
system.cpu0.op_class::IntMult                       0      0.00%     40.91% # Class of executed instruction
system.cpu0.op_class::IntDiv                        0      0.00%     40.91% # Class of executed instruction
system.cpu0.op_class::FloatAdd                      1      4.55%     45.45% # Class of executed instruction
system.cpu0.op_class::FloatCmp                      0      0.00%     45.45% # Class of executed instruction
system.cpu0.op_class::FloatCvt                      0      0.00%     45.45% # Class of executed instruction
system.cpu0.op_class::FloatMult                     0      0.00%     45.45% # Class of executed instruction
system.cpu0.op_class::FloatMultAcc                  0      0.00%     45.45% # Class of executed instruction
system.cpu0.op_class::FloatDiv                      0      0.00%     45.45% # Class of executed instruction
system.cpu0.op_class::FloatMisc                     0      0.00%     45.45% # Class of executed instruction
system.cpu0.op_class::FloatSqrt                     0      0.00%     45.45% # Class of executed instruction
system.cpu0.op_class::SimdAdd                       0      0.00%     45.45% # Class of executed instruction
system.cpu0.op_class::SimdAddAcc                    0      0.00%     45.45% # Class of executed instruction
system.cpu0.op_class::SimdAlu                       0      0.00%     45.45% # Class of executed instruction
system.cpu0.op_class::SimdCmp                       0      0.00%     45.45% # Class of executed instruction
system.cpu0.op_class::SimdCvt                       0      0.00%     45.45% # Class of executed instruction
system.cpu0.op_class::SimdMisc                      1      4.55%     50.00% # Class of executed instruction
system.cpu0.op_class::SimdMult                      0      0.00%     50.00% # Class of executed instruction
system.cpu0.op_class::SimdMultAcc                   0      0.00%     50.00% # Class of executed instruction
system.cpu0.op_class::SimdShift                     0      0.00%     50.00% # Class of executed instruction
system.cpu0.op_class::SimdShiftAcc                  0      0.00%     50.00% # Class of executed instruction
system.cpu0.op_class::SimdDiv                       0      0.00%     50.00% # Class of executed instruction
system.cpu0.op_class::SimdSqrt                      0      0.00%     50.00% # Class of executed instruction
system.cpu0.op_class::SimdFloatAdd                  4     18.18%     68.18% # Class of executed instruction
system.cpu0.op_class::SimdFloatAlu                  0      0.00%     68.18% # Class of executed instruction
system.cpu0.op_class::SimdFloatCmp                  0      0.00%     68.18% # Class of executed instruction
system.cpu0.op_class::SimdFloatCvt                  0      0.00%     68.18% # Class of executed instruction
system.cpu0.op_class::SimdFloatDiv                  0      0.00%     68.18% # Class of executed instruction
system.cpu0.op_class::SimdFloatMisc                 0      0.00%     68.18% # Class of executed instruction
system.cpu0.op_class::SimdFloatMult                 4     18.18%     86.36% # Class of executed instruction
system.cpu0.op_class::SimdFloatMultAcc              0      0.00%     86.36% # Class of executed instruction
system.cpu0.op_class::SimdFloatSqrt                 0      0.00%     86.36% # Class of executed instruction
system.cpu0.op_class::SimdReduceAdd                 0      0.00%     86.36% # Class of executed instruction
system.cpu0.op_class::SimdReduceAlu                 0      0.00%     86.36% # Class of executed instruction
system.cpu0.op_class::SimdReduceCmp                 0      0.00%     86.36% # Class of executed instruction
system.cpu0.op_class::SimdFloatReduceAdd            0      0.00%     86.36% # Class of executed instruction
system.cpu0.op_class::SimdFloatReduceCmp            0      0.00%     86.36% # Class of executed instruction
system.cpu0.op_class::SimdAes                       0      0.00%     86.36% # Class of executed instruction
system.cpu0.op_class::SimdAesMix                    0      0.00%     86.36% # Class of executed instruction
system.cpu0.op_class::SimdSha1Hash                  0      0.00%     86.36% # Class of executed instruction
system.cpu0.op_class::SimdSha1Hash2                 0      0.00%     86.36% # Class of executed instruction
system.cpu0.op_class::SimdSha256Hash                0      0.00%     86.36% # Class of executed instruction
system.cpu0.op_class::SimdSha256Hash2               0      0.00%     86.36% # Class of executed instruction
system.cpu0.op_class::SimdShaSigma2                 0      0.00%     86.36% # Class of executed instruction
system.cpu0.op_class::SimdShaSigma3                 0      0.00%     86.36% # Class of executed instruction
system.cpu0.op_class::SimdPredAlu                   0      0.00%     86.36% # Class of executed instruction
system.cpu0.op_class::MemRead                       0      0.00%     86.36% # Class of executed instruction
system.cpu0.op_class::MemWrite                      0      0.00%     86.36% # Class of executed instruction
system.cpu0.op_class::FloatMemRead                  3     13.64%    100.00% # Class of executed instruction
system.cpu0.op_class::FloatMemWrite                 0      0.00%    100.00% # Class of executed instruction
system.cpu0.op_class::IprAccess                     0      0.00%    100.00% # Class of executed instruction
system.cpu0.op_class::InstPrefetch                  0      0.00%    100.00% # Class of executed instruction
system.cpu0.op_class::total                        22                       # Class of executed instruction
system.cpu0.workload.numSyscalls                    0                       # Number of system calls
system.cpu1.Branches                                1                       # Number of branches fetched
system.cpu1.committedInsts                         14                       # Number of instructions committed
system.cpu1.committedOps                           22                       # Number of ops (including micro ops) committed
system.cpu1.idle_fraction                           0                       # Percentage of idle cycles
system.cpu1.l2bus.snoop_filter.hit_multi_requests        30452                       # Number of requests hitting in the snoop filter with multiple (>1) holders of the requested data.
system.cpu1.l2bus.snoop_filter.hit_multi_snoops            0                       # Number of snoops hitting in the snoop filter with multiple (>1) holders of the requested data.
system.cpu1.l2bus.snoop_filter.hit_single_requests      1743680                       # Number of requests hitting in the snoop filter with a single holder of the requested data.
system.cpu1.l2bus.snoop_filter.hit_single_snoops            0                       # Number of snoops hitting in the snoop filter with a single holder of the requested data.
system.cpu1.l2bus.snoop_filter.tot_requests      3488351                       # Total number of requests made to the snoop filter.
system.cpu1.l2bus.snoop_filter.tot_snoops            0                       # Total number of snoops made to the snoop filter.
system.cpu1.mmucache.mmubus.snoop_filter.hit_multi_requests            0                       # Number of requests hitting in the snoop filter with multiple (>1) holders of the requested data.
system.cpu1.mmucache.mmubus.snoop_filter.hit_multi_snoops            0                       # Number of snoops hitting in the snoop filter with multiple (>1) holders of the requested data.
system.cpu1.mmucache.mmubus.snoop_filter.hit_single_requests            0                       # Number of requests hitting in the snoop filter with a single holder of the requested data.
system.cpu1.mmucache.mmubus.snoop_filter.hit_single_snoops            0                       # Number of snoops hitting in the snoop filter with a single holder of the requested data.
system.cpu1.mmucache.mmubus.snoop_filter.tot_requests            0                       # Total number of requests made to the snoop filter.
system.cpu1.mmucache.mmubus.snoop_filter.tot_snoops            0                       # Total number of snoops made to the snoop filter.
system.cpu1.not_idle_fraction                       1                       # Percentage of non-idle cycles
system.cpu1.numCycles                              30                       # number of cpu cycles simulated
system.cpu1.numWorkItemsCompleted                   0                       # number of work items this cpu completed
system.cpu1.numWorkItemsStarted                     0                       # number of work items this cpu started
system.cpu1.num_busy_cycles                        30                       # Number of busy cycles
system.cpu1.num_cc_register_reads                  13                       # number of times the CC registers were read
system.cpu1.num_cc_register_writes                  4                       # number of times the CC registers were written
system.cpu1.num_conditional_control_insts            0                       # number of instructions that are conditional controls
system.cpu1.num_fp_alu_accesses                    15                       # Number of float alu accesses
system.cpu1.num_fp_insts                           15                       # number of float instructions
system.cpu1.num_fp_register_reads                  20                       # number of times the floating registers were read
system.cpu1.num_fp_register_writes                 14                       # number of times the floating registers were written
system.cpu1.num_func_calls                          0                       # number of times a function call or return occured
system.cpu1.num_idle_cycles                         0                       # Number of idle cycles
system.cpu1.num_int_alu_accesses                   15                       # Number of integer alu accesses
system.cpu1.num_int_insts                          15                       # number of integer instructions
system.cpu1.num_int_register_reads                 35                       # number of times the integer registers were read
system.cpu1.num_int_register_writes                 6                       # number of times the integer registers were written
system.cpu1.num_load_insts                          8                       # Number of load instructions
system.cpu1.num_mem_refs                            8                       # number of memory refs
system.cpu1.num_store_insts                         0                       # Number of store instructions
system.cpu1.num_vec_alu_accesses                    0                       # Number of vector alu accesses
system.cpu1.num_vec_insts                           0                       # number of vector instructions
system.cpu1.num_vec_register_reads                  0                       # number of times the vector registers were read
system.cpu1.num_vec_register_writes                 0                       # number of times the vector registers were written
system.cpu1.op_class::No_OpClass                    0      0.00%      0.00% # Class of executed instruction
system.cpu1.op_class::IntAlu                        7     31.82%     31.82% # Class of executed instruction
system.cpu1.op_class::IntMult                       0      0.00%     31.82% # Class of executed instruction
system.cpu1.op_class::IntDiv                        0      0.00%     31.82% # Class of executed instruction
system.cpu1.op_class::FloatAdd                      0      0.00%     31.82% # Class of executed instruction
system.cpu1.op_class::FloatCmp                      0      0.00%     31.82% # Class of executed instruction
system.cpu1.op_class::FloatCvt                      0      0.00%     31.82% # Class of executed instruction
system.cpu1.op_class::FloatMult                     0      0.00%     31.82% # Class of executed instruction
system.cpu1.op_class::FloatMultAcc                  0      0.00%     31.82% # Class of executed instruction
system.cpu1.op_class::FloatDiv                      0      0.00%     31.82% # Class of executed instruction
system.cpu1.op_class::FloatMisc                     0      0.00%     31.82% # Class of executed instruction
system.cpu1.op_class::FloatSqrt                     0      0.00%     31.82% # Class of executed instruction
system.cpu1.op_class::SimdAdd                       0      0.00%     31.82% # Class of executed instruction
system.cpu1.op_class::SimdAddAcc                    0      0.00%     31.82% # Class of executed instruction
system.cpu1.op_class::SimdAlu                       0      0.00%     31.82% # Class of executed instruction
system.cpu1.op_class::SimdCmp                       0      0.00%     31.82% # Class of executed instruction
system.cpu1.op_class::SimdCvt                       0      0.00%     31.82% # Class of executed instruction
system.cpu1.op_class::SimdMisc                      0      0.00%     31.82% # Class of executed instruction
system.cpu1.op_class::SimdMult                      0      0.00%     31.82% # Class of executed instruction
system.cpu1.op_class::SimdMultAcc                   0      0.00%     31.82% # Class of executed instruction
system.cpu1.op_class::SimdShift                     0      0.00%     31.82% # Class of executed instruction
system.cpu1.op_class::SimdShiftAcc                  0      0.00%     31.82% # Class of executed instruction
system.cpu1.op_class::SimdDiv                       0      0.00%     31.82% # Class of executed instruction
system.cpu1.op_class::SimdSqrt                      0      0.00%     31.82% # Class of executed instruction
system.cpu1.op_class::SimdFloatAdd                  3     13.64%     45.45% # Class of executed instruction
system.cpu1.op_class::SimdFloatAlu                  0      0.00%     45.45% # Class of executed instruction
system.cpu1.op_class::SimdFloatCmp                  0      0.00%     45.45% # Class of executed instruction
system.cpu1.op_class::SimdFloatCvt                  1      4.55%     50.00% # Class of executed instruction
system.cpu1.op_class::SimdFloatDiv                  0      0.00%     50.00% # Class of executed instruction
system.cpu1.op_class::SimdFloatMisc                 0      0.00%     50.00% # Class of executed instruction
system.cpu1.op_class::SimdFloatMult                 3     13.64%     63.64% # Class of executed instruction
system.cpu1.op_class::SimdFloatMultAcc              0      0.00%     63.64% # Class of executed instruction
system.cpu1.op_class::SimdFloatSqrt                 0      0.00%     63.64% # Class of executed instruction
system.cpu1.op_class::SimdReduceAdd                 0      0.00%     63.64% # Class of executed instruction
system.cpu1.op_class::SimdReduceAlu                 0      0.00%     63.64% # Class of executed instruction
system.cpu1.op_class::SimdReduceCmp                 0      0.00%     63.64% # Class of executed instruction
system.cpu1.op_class::SimdFloatReduceAdd            0      0.00%     63.64% # Class of executed instruction
system.cpu1.op_class::SimdFloatReduceCmp            0      0.00%     63.64% # Class of executed instruction
system.cpu1.op_class::SimdAes                       0      0.00%     63.64% # Class of executed instruction
system.cpu1.op_class::SimdAesMix                    0      0.00%     63.64% # Class of executed instruction
system.cpu1.op_class::SimdSha1Hash                  0      0.00%     63.64% # Class of executed instruction
system.cpu1.op_class::SimdSha1Hash2                 0      0.00%     63.64% # Class of executed instruction
system.cpu1.op_class::SimdSha256Hash                0      0.00%     63.64% # Class of executed instruction
system.cpu1.op_class::SimdSha256Hash2               0      0.00%     63.64% # Class of executed instruction
system.cpu1.op_class::SimdShaSigma2                 0      0.00%     63.64% # Class of executed instruction
system.cpu1.op_class::SimdShaSigma3                 0      0.00%     63.64% # Class of executed instruction
system.cpu1.op_class::SimdPredAlu                   0      0.00%     63.64% # Class of executed instruction
system.cpu1.op_class::MemRead                       0      0.00%     63.64% # Class of executed instruction
system.cpu1.op_class::MemWrite                      0      0.00%     63.64% # Class of executed instruction
system.cpu1.op_class::FloatMemRead                  8     36.36%    100.00% # Class of executed instruction
system.cpu1.op_class::FloatMemWrite                 0      0.00%    100.00% # Class of executed instruction
system.cpu1.op_class::IprAccess                     0      0.00%    100.00% # Class of executed instruction
system.cpu1.op_class::InstPrefetch                  0      0.00%    100.00% # Class of executed instruction
system.cpu1.op_class::total                        22                       # Class of executed instruction
system.cpu1.workload.numSyscalls                    2                       # Number of system calls
system.cpu2.Branches                                2                       # Number of branches fetched
system.cpu2.committedInsts                         19                       # Number of instructions committed
system.cpu2.committedOps                           25                       # Number of ops (including micro ops) committed
system.cpu2.idle_fraction                           0                       # Percentage of idle cycles
system.cpu2.l2bus.snoop_filter.hit_multi_requests           95                       # Number of requests hitting in the snoop filter with multiple (>1) holders of the requested data.
system.cpu2.l2bus.snoop_filter.hit_multi_snoops            0                       # Number of snoops hitting in the snoop filter with multiple (>1) holders of the requested data.
system.cpu2.l2bus.snoop_filter.hit_single_requests      2408239                       # Number of requests hitting in the snoop filter with a single holder of the requested data.
system.cpu2.l2bus.snoop_filter.hit_single_snoops          322                       # Number of snoops hitting in the snoop filter with a single holder of the requested data.
system.cpu2.l2bus.snoop_filter.tot_requests      4801331                       # Total number of requests made to the snoop filter.
system.cpu2.l2bus.snoop_filter.tot_snoops          322                       # Total number of snoops made to the snoop filter.
system.cpu2.mmucache.mmubus.snoop_filter.hit_multi_requests            0                       # Number of requests hitting in the snoop filter with multiple (>1) holders of the requested data.
system.cpu2.mmucache.mmubus.snoop_filter.hit_multi_snoops            0                       # Number of snoops hitting in the snoop filter with multiple (>1) holders of the requested data.
system.cpu2.mmucache.mmubus.snoop_filter.hit_single_requests            0                       # Number of requests hitting in the snoop filter with a single holder of the requested data.
system.cpu2.mmucache.mmubus.snoop_filter.hit_single_snoops            0                       # Number of snoops hitting in the snoop filter with a single holder of the requested data.
system.cpu2.mmucache.mmubus.snoop_filter.tot_requests            0                       # Total number of requests made to the snoop filter.
system.cpu2.mmucache.mmubus.snoop_filter.tot_snoops            0                       # Total number of snoops made to the snoop filter.
system.cpu2.not_idle_fraction                       1                       # Percentage of non-idle cycles
system.cpu2.numCycles                              30                       # number of cpu cycles simulated
system.cpu2.numWorkItemsCompleted                   0                       # number of work items this cpu completed
system.cpu2.numWorkItemsStarted                     0                       # number of work items this cpu started
system.cpu2.num_busy_cycles                        30                       # Number of busy cycles
system.cpu2.num_cc_register_reads                  13                       # number of times the CC registers were read
system.cpu2.num_cc_register_writes                 12                       # number of times the CC registers were written
system.cpu2.num_conditional_control_insts            2                       # number of instructions that are conditional controls
system.cpu2.num_fp_alu_accesses                     0                       # Number of float alu accesses
system.cpu2.num_fp_insts                            0                       # number of float instructions
system.cpu2.num_fp_register_reads                   0                       # number of times the floating registers were read
system.cpu2.num_fp_register_writes                  0                       # number of times the floating registers were written
system.cpu2.num_func_calls                          0                       # number of times a function call or return occured
system.cpu2.num_idle_cycles                         0                       # Number of idle cycles
system.cpu2.num_int_alu_accesses                   25                       # Number of integer alu accesses
system.cpu2.num_int_insts                          25                       # number of integer instructions
system.cpu2.num_int_register_reads                 59                       # number of times the integer registers were read
system.cpu2.num_int_register_writes                20                       # number of times the integer registers were written
system.cpu2.num_load_insts                          7                       # Number of load instructions
system.cpu2.num_mem_refs                           10                       # number of memory refs
system.cpu2.num_store_insts                         3                       # Number of store instructions
system.cpu2.num_vec_alu_accesses                    0                       # Number of vector alu accesses
system.cpu2.num_vec_insts                           0                       # number of vector instructions
system.cpu2.num_vec_register_reads                  0                       # number of times the vector registers were read
system.cpu2.num_vec_register_writes                 0                       # number of times the vector registers were written
system.cpu2.op_class::No_OpClass                    0      0.00%      0.00% # Class of executed instruction
system.cpu2.op_class::IntAlu                       15     60.00%     60.00% # Class of executed instruction
system.cpu2.op_class::IntMult                       0      0.00%     60.00% # Class of executed instruction
system.cpu2.op_class::IntDiv                        0      0.00%     60.00% # Class of executed instruction
system.cpu2.op_class::FloatAdd                      0      0.00%     60.00% # Class of executed instruction
system.cpu2.op_class::FloatCmp                      0      0.00%     60.00% # Class of executed instruction
system.cpu2.op_class::FloatCvt                      0      0.00%     60.00% # Class of executed instruction
system.cpu2.op_class::FloatMult                     0      0.00%     60.00% # Class of executed instruction
system.cpu2.op_class::FloatMultAcc                  0      0.00%     60.00% # Class of executed instruction
system.cpu2.op_class::FloatDiv                      0      0.00%     60.00% # Class of executed instruction
system.cpu2.op_class::FloatMisc                     0      0.00%     60.00% # Class of executed instruction
system.cpu2.op_class::FloatSqrt                     0      0.00%     60.00% # Class of executed instruction
system.cpu2.op_class::SimdAdd                       0      0.00%     60.00% # Class of executed instruction
system.cpu2.op_class::SimdAddAcc                    0      0.00%     60.00% # Class of executed instruction
system.cpu2.op_class::SimdAlu                       0      0.00%     60.00% # Class of executed instruction
system.cpu2.op_class::SimdCmp                       0      0.00%     60.00% # Class of executed instruction
system.cpu2.op_class::SimdCvt                       0      0.00%     60.00% # Class of executed instruction
system.cpu2.op_class::SimdMisc                      0      0.00%     60.00% # Class of executed instruction
system.cpu2.op_class::SimdMult                      0      0.00%     60.00% # Class of executed instruction
system.cpu2.op_class::SimdMultAcc                   0      0.00%     60.00% # Class of executed instruction
system.cpu2.op_class::SimdShift                     0      0.00%     60.00% # Class of executed instruction
system.cpu2.op_class::SimdShiftAcc                  0      0.00%     60.00% # Class of executed instruction
system.cpu2.op_class::SimdDiv                       0      0.00%     60.00% # Class of executed instruction
system.cpu2.op_class::SimdSqrt                      0      0.00%     60.00% # Class of executed instruction
system.cpu2.op_class::SimdFloatAdd                  0      0.00%     60.00% # Class of executed instruction
system.cpu2.op_class::SimdFloatAlu                  0      0.00%     60.00% # Class of executed instruction
system.cpu2.op_class::SimdFloatCmp                  0      0.00%     60.00% # Class of executed instruction
system.cpu2.op_class::SimdFloatCvt                  0      0.00%     60.00% # Class of executed instruction
system.cpu2.op_class::SimdFloatDiv                  0      0.00%     60.00% # Class of executed instruction
system.cpu2.op_class::SimdFloatMisc                 0      0.00%     60.00% # Class of executed instruction
system.cpu2.op_class::SimdFloatMult                 0      0.00%     60.00% # Class of executed instruction
system.cpu2.op_class::SimdFloatMultAcc              0      0.00%     60.00% # Class of executed instruction
system.cpu2.op_class::SimdFloatSqrt                 0      0.00%     60.00% # Class of executed instruction
system.cpu2.op_class::SimdReduceAdd                 0      0.00%     60.00% # Class of executed instruction
system.cpu2.op_class::SimdReduceAlu                 0      0.00%     60.00% # Class of executed instruction
system.cpu2.op_class::SimdReduceCmp                 0      0.00%     60.00% # Class of executed instruction
system.cpu2.op_class::SimdFloatReduceAdd            0      0.00%     60.00% # Class of executed instruction
system.cpu2.op_class::SimdFloatReduceCmp            0      0.00%     60.00% # Class of executed instruction
system.cpu2.op_class::SimdAes                       0      0.00%     60.00% # Class of executed instruction
system.cpu2.op_class::SimdAesMix                    0      0.00%     60.00% # Class of executed instruction
system.cpu2.op_class::SimdSha1Hash                  0      0.00%     60.00% # Class of executed instruction
system.cpu2.op_class::SimdSha1Hash2                 0      0.00%     60.00% # Class of executed instruction
system.cpu2.op_class::SimdSha256Hash                0      0.00%     60.00% # Class of executed instruction
system.cpu2.op_class::SimdSha256Hash2               0      0.00%     60.00% # Class of executed instruction
system.cpu2.op_class::SimdShaSigma2                 0      0.00%     60.00% # Class of executed instruction
system.cpu2.op_class::SimdShaSigma3                 0      0.00%     60.00% # Class of executed instruction
system.cpu2.op_class::SimdPredAlu                   0      0.00%     60.00% # Class of executed instruction
system.cpu2.op_class::MemRead                       7     28.00%     88.00% # Class of executed instruction
system.cpu2.op_class::MemWrite                      3     12.00%    100.00% # Class of executed instruction
system.cpu2.op_class::FloatMemRead                  0      0.00%    100.00% # Class of executed instruction
system.cpu2.op_class::FloatMemWrite                 0      0.00%    100.00% # Class of executed instruction
system.cpu2.op_class::IprAccess                     0      0.00%    100.00% # Class of executed instruction
system.cpu2.op_class::InstPrefetch                  0      0.00%    100.00% # Class of executed instruction
system.cpu2.op_class::total                        25                       # Class of executed instruction
system.cpu2.workload.numSyscalls                    0                       # Number of system calls
system.cpu3.Branches                                1                       # Number of branches fetched
system.cpu3.committedInsts                         19                       # Number of instructions committed
system.cpu3.committedOps                           24                       # Number of ops (including micro ops) committed
system.cpu3.idle_fraction                           0                       # Percentage of idle cycles
system.cpu3.l2bus.snoop_filter.hit_multi_requests            0                       # Number of requests hitting in the snoop filter with multiple (>1) holders of the requested data.
system.cpu3.l2bus.snoop_filter.hit_multi_snoops            0                       # Number of snoops hitting in the snoop filter with multiple (>1) holders of the requested data.
system.cpu3.l2bus.snoop_filter.hit_single_requests      1957695                       # Number of requests hitting in the snoop filter with a single holder of the requested data.
system.cpu3.l2bus.snoop_filter.hit_single_snoops          294                       # Number of snoops hitting in the snoop filter with a single holder of the requested data.
system.cpu3.l2bus.snoop_filter.tot_requests      3911065                       # Total number of requests made to the snoop filter.
system.cpu3.l2bus.snoop_filter.tot_snoops          294                       # Total number of snoops made to the snoop filter.
system.cpu3.mmucache.mmubus.snoop_filter.hit_multi_requests            0                       # Number of requests hitting in the snoop filter with multiple (>1) holders of the requested data.
system.cpu3.mmucache.mmubus.snoop_filter.hit_multi_snoops            0                       # Number of snoops hitting in the snoop filter with multiple (>1) holders of the requested data.
system.cpu3.mmucache.mmubus.snoop_filter.hit_single_requests            0                       # Number of requests hitting in the snoop filter with a single holder of the requested data.
system.cpu3.mmucache.mmubus.snoop_filter.hit_single_snoops            0                       # Number of snoops hitting in the snoop filter with a single holder of the requested data.
system.cpu3.mmucache.mmubus.snoop_filter.tot_requests            0                       # Total number of requests made to the snoop filter.
system.cpu3.mmucache.mmubus.snoop_filter.tot_snoops            0                       # Total number of snoops made to the snoop filter.
system.cpu3.not_idle_fraction                       1                       # Percentage of non-idle cycles
system.cpu3.numCycles                              30                       # number of cpu cycles simulated
system.cpu3.numWorkItemsCompleted                   0                       # number of work items this cpu completed
system.cpu3.numWorkItemsStarted                     0                       # number of work items this cpu started
system.cpu3.num_busy_cycles                        30                       # Number of busy cycles
system.cpu3.num_cc_register_reads                   5                       # number of times the CC registers were read
system.cpu3.num_cc_register_writes                  8                       # number of times the CC registers were written
system.cpu3.num_conditional_control_insts            1                       # number of instructions that are conditional controls
system.cpu3.num_fp_alu_accesses                    14                       # Number of float alu accesses
system.cpu3.num_fp_insts                           14                       # number of float instructions
system.cpu3.num_fp_register_reads                  36                       # number of times the floating registers were read
system.cpu3.num_fp_register_writes                 14                       # number of times the floating registers were written
system.cpu3.num_func_calls                          0                       # number of times a function call or return occured
system.cpu3.num_idle_cycles                         0                       # Number of idle cycles
system.cpu3.num_int_alu_accesses                   11                       # Number of integer alu accesses
system.cpu3.num_int_insts                          11                       # number of integer instructions
system.cpu3.num_int_register_reads                 18                       # number of times the integer registers were read
system.cpu3.num_int_register_writes                 9                       # number of times the integer registers were written
system.cpu3.num_load_insts                          1                       # Number of load instructions
system.cpu3.num_mem_refs                            1                       # number of memory refs
system.cpu3.num_store_insts                         0                       # Number of store instructions
system.cpu3.num_vec_alu_accesses                    0                       # Number of vector alu accesses
system.cpu3.num_vec_insts                           0                       # number of vector instructions
system.cpu3.num_vec_register_reads                  0                       # number of times the vector registers were read
system.cpu3.num_vec_register_writes                 0                       # number of times the vector registers were written
system.cpu3.op_class::No_OpClass                    0      0.00%      0.00% # Class of executed instruction
system.cpu3.op_class::IntAlu                       13     54.17%     54.17% # Class of executed instruction
system.cpu3.op_class::IntMult                       0      0.00%     54.17% # Class of executed instruction
system.cpu3.op_class::IntDiv                        0      0.00%     54.17% # Class of executed instruction
system.cpu3.op_class::FloatAdd                      0      0.00%     54.17% # Class of executed instruction
system.cpu3.op_class::FloatCmp                      0      0.00%     54.17% # Class of executed instruction
system.cpu3.op_class::FloatCvt                      0      0.00%     54.17% # Class of executed instruction
system.cpu3.op_class::FloatMult                     0      0.00%     54.17% # Class of executed instruction
system.cpu3.op_class::FloatMultAcc                  0      0.00%     54.17% # Class of executed instruction
system.cpu3.op_class::FloatDiv                      0      0.00%     54.17% # Class of executed instruction
system.cpu3.op_class::FloatMisc                     0      0.00%     54.17% # Class of executed instruction
system.cpu3.op_class::FloatSqrt                     0      0.00%     54.17% # Class of executed instruction
system.cpu3.op_class::SimdAdd                       0      0.00%     54.17% # Class of executed instruction
system.cpu3.op_class::SimdAddAcc                    0      0.00%     54.17% # Class of executed instruction
system.cpu3.op_class::SimdAlu                       0      0.00%     54.17% # Class of executed instruction
system.cpu3.op_class::SimdCmp                       0      0.00%     54.17% # Class of executed instruction
system.cpu3.op_class::SimdCvt                       0      0.00%     54.17% # Class of executed instruction
system.cpu3.op_class::SimdMisc                      0      0.00%     54.17% # Class of executed instruction
system.cpu3.op_class::SimdMult                      0      0.00%     54.17% # Class of executed instruction
system.cpu3.op_class::SimdMultAcc                   0      0.00%     54.17% # Class of executed instruction
system.cpu3.op_class::SimdShift                     0      0.00%     54.17% # Class of executed instruction
system.cpu3.op_class::SimdShiftAcc                  0      0.00%     54.17% # Class of executed instruction
system.cpu3.op_class::SimdDiv                       0      0.00%     54.17% # Class of executed instruction
system.cpu3.op_class::SimdSqrt                      0      0.00%     54.17% # Class of executed instruction
system.cpu3.op_class::SimdFloatAdd                  3     12.50%     66.67% # Class of executed instruction
system.cpu3.op_class::SimdFloatAlu                  0      0.00%     66.67% # Class of executed instruction
system.cpu3.op_class::SimdFloatCmp                  0      0.00%     66.67% # Class of executed instruction
system.cpu3.op_class::SimdFloatCvt                  0      0.00%     66.67% # Class of executed instruction
system.cpu3.op_class::SimdFloatDiv                  0      0.00%     66.67% # Class of executed instruction
system.cpu3.op_class::SimdFloatMisc                 0      0.00%     66.67% # Class of executed instruction
system.cpu3.op_class::SimdFloatMult                 7     29.17%     95.83% # Class of executed instruction
system.cpu3.op_class::SimdFloatMultAcc              0      0.00%     95.83% # Class of executed instruction
system.cpu3.op_class::SimdFloatSqrt                 0      0.00%     95.83% # Class of executed instruction
system.cpu3.op_class::SimdReduceAdd                 0      0.00%     95.83% # Class of executed instruction
system.cpu3.op_class::SimdReduceAlu                 0      0.00%     95.83% # Class of executed instruction
system.cpu3.op_class::SimdReduceCmp                 0      0.00%     95.83% # Class of executed instruction
system.cpu3.op_class::SimdFloatReduceAdd            0      0.00%     95.83% # Class of executed instruction
system.cpu3.op_class::SimdFloatReduceCmp            0      0.00%     95.83% # Class of executed instruction
system.cpu3.op_class::SimdAes                       0      0.00%     95.83% # Class of executed instruction
system.cpu3.op_class::SimdAesMix                    0      0.00%     95.83% # Class of executed instruction
system.cpu3.op_class::SimdSha1Hash                  0      0.00%     95.83% # Class of executed instruction
system.cpu3.op_class::SimdSha1Hash2                 0      0.00%     95.83% # Class of executed instruction
system.cpu3.op_class::SimdSha256Hash                0      0.00%     95.83% # Class of executed instruction
system.cpu3.op_class::SimdSha256Hash2               0      0.00%     95.83% # Class of executed instruction
system.cpu3.op_class::SimdShaSigma2                 0      0.00%     95.83% # Class of executed instruction
system.cpu3.op_class::SimdShaSigma3                 0      0.00%     95.83% # Class of executed instruction
system.cpu3.op_class::SimdPredAlu                   0      0.00%     95.83% # Class of executed instruction
system.cpu3.op_class::MemRead                       0      0.00%     95.83% # Class of executed instruction
system.cpu3.op_class::MemWrite                      0      0.00%     95.83% # Class of executed instruction
system.cpu3.op_class::FloatMemRead                  1      4.17%    100.00% # Class of executed instruction
system.cpu3.op_class::FloatMemWrite                 0      0.00%    100.00% # Class of executed instruction
system.cpu3.op_class::IprAccess                     0      0.00%    100.00% # Class of executed instruction
system.cpu3.op_class::InstPrefetch                  0      0.00%    100.00% # Class of executed instruction
system.cpu3.op_class::total                        24                       # Class of executed instruction
system.cpu3.workload.numSyscalls                    0                       # Number of system calls
system.l3bus.snoop_filter.hit_multi_requests            0                       # Number of requests hitting in the snoop filter with multiple (>1) holders of the requested data.
system.l3bus.snoop_filter.hit_multi_snoops            0                       # Number of snoops hitting in the snoop filter with multiple (>1) holders of the requested data.
system.l3bus.snoop_filter.hit_single_requests      1368097                       # Number of requests hitting in the snoop filter with a single holder of the requested data.
system.l3bus.snoop_filter.hit_single_snoops            0                       # Number of snoops hitting in the snoop filter with a single holder of the requested data.
system.l3bus.snoop_filter.tot_requests        2751664                       # Total number of requests made to the snoop filter.
system.l3bus.snoop_filter.tot_snoops                0                       # Total number of snoops made to the snoop filter.
system.membus.snoop_filter.hit_multi_requests            0                       # Number of requests hitting in the snoop filter with multiple (>1) holders of the requested data.
system.membus.snoop_filter.hit_multi_snoops            0                       # Number of snoops hitting in the snoop filter with multiple (>1) holders of the requested data.
system.membus.snoop_filter.hit_single_requests       558688                       # Number of requests hitting in the snoop filter with a single holder of the requested data.
system.membus.snoop_filter.hit_single_snoops            0                       # Number of snoops hitting in the snoop filter with a single holder of the requested data.
system.membus.snoop_filter.tot_requests       1196846                       # Total number of requests made to the snoop filter.
system.membus.snoop_filter.tot_snoops               0                       # Total number of snoops made to the snoop filter.
system.switch_cpus0.cc_regfile_reads         50621144                       # number of cc regfile reads
system.switch_cpus0.cc_regfile_writes        45697154                       # number of cc regfile writes
system.switch_cpus0.committedInsts          126937125                       # Number of Instructions Simulated
system.switch_cpus0.committedOps            230019513                       # Number of Ops (including micro ops) Simulated
system.switch_cpus0.cpi                      0.787772                       # CPI: Cycles Per Instruction
system.switch_cpus0.cpi_total                0.787772                       # CPI: Total CPI of All Threads
system.switch_cpus0.fp_regfile_reads        170323594                       # number of floating regfile reads
system.switch_cpus0.fp_regfile_writes       105854894                       # number of floating regfile writes
system.switch_cpus0.idleCycles                 384018                       # Total number of cycles that the CPU has spent unscheduled due to idling
system.switch_cpus0.iew.branchMispredicts       108977                       # Number of branch mispredicts detected at execute
system.switch_cpus0.iew.exec_branches        12894284                       # Number of branches executed
system.switch_cpus0.iew.exec_nop                    0                       # number of nop insts executed
system.switch_cpus0.iew.exec_rate            2.342589                       # Inst execution rate
system.switch_cpus0.iew.exec_refs            46965360                       # number of memory reference insts executed
system.switch_cpus0.iew.exec_stores          10833369                       # Number of stores executed
system.switch_cpus0.iew.exec_swp                    0                       # number of swp insts executed
system.switch_cpus0.iew.iewBlockCycles        2043733                       # Number of cycles IEW is blocking
system.switch_cpus0.iew.iewDispLoadInsts     35070083                       # Number of dispatched load instructions
system.switch_cpus0.iew.iewDispNonSpecInsts          100                       # Number of dispatched non-speculative instructions
system.switch_cpus0.iew.iewDispSquashedInsts         6646                       # Number of squashed instructions skipped by dispatch
system.switch_cpus0.iew.iewDispStoreInsts     11012032                       # Number of dispatched store instructions
system.switch_cpus0.iew.iewDispatchedInsts    234734625                       # Number of instructions dispatched to IQ
system.switch_cpus0.iew.iewExecLoadInsts     36131991                       # Number of load instructions executed
system.switch_cpus0.iew.iewExecSquashedInsts       188186                       # Number of squashed instructions skipped in execute
system.switch_cpus0.iew.iewExecutedInsts    234253181                       # Number of executed instructions
system.switch_cpus0.iew.iewIQFullEvents          5284                       # Number of times the IQ has become full, causing a stall
system.switch_cpus0.iew.iewIdleCycles               0                       # Number of cycles IEW is idle
system.switch_cpus0.iew.iewLSQFullEvents     12240045                       # Number of times the LSQ has become full, causing a stall
system.switch_cpus0.iew.iewSquashCycles        110335                       # Number of cycles IEW is squashing
system.switch_cpus0.iew.iewUnblockCycles     12307200                       # Number of cycles IEW is unblocking
system.switch_cpus0.iew.memOrderViolationEvents         2738                       # Number of memory order violations
system.switch_cpus0.iew.predictedNotTakenIncorrect        70816                       # Number of branches that were predicted not taken incorrectly
system.switch_cpus0.iew.predictedTakenIncorrect        38161                       # Number of branches that were predicted taken incorrectly
system.switch_cpus0.iew.wb_consumers        280005765                       # num instructions consuming a value
system.switch_cpus0.iew.wb_count            232873859                       # cumulative count of insts written-back
system.switch_cpus0.iew.wb_fanout            0.600592                       # average fanout of values written-back
system.switch_cpus0.iew.wb_producers        168169355                       # num instructions producing a value
system.switch_cpus0.iew.wb_rate              2.328795                       # insts written-back per cycle
system.switch_cpus0.iew.wb_sent             232975825                       # cumulative count of insts sent to commit
system.switch_cpus0.int_regfile_reads       215168983                       # number of integer regfile reads
system.switch_cpus0.int_regfile_writes      102757237                       # number of integer regfile writes
system.switch_cpus0.ipc                      1.269402                       # IPC: Instructions Per Cycle
system.switch_cpus0.ipc_total                1.269402                       # IPC: Total IPC of All Threads
system.switch_cpus0.iq.FU_type_0::No_OpClass       114039      0.05%      0.05% # Type of FU issued
system.switch_cpus0.iq.FU_type_0::IntAlu    113573663     48.44%     48.49% # Type of FU issued
system.switch_cpus0.iq.FU_type_0::IntMult        25925      0.01%     48.50% # Type of FU issued
system.switch_cpus0.iq.FU_type_0::IntDiv            0      0.00%     48.50% # Type of FU issued
system.switch_cpus0.iq.FU_type_0::FloatAdd     18105040      7.72%     56.23% # Type of FU issued
system.switch_cpus0.iq.FU_type_0::FloatCmp            0      0.00%     56.23% # Type of FU issued
system.switch_cpus0.iq.FU_type_0::FloatCvt            0      0.00%     56.23% # Type of FU issued
system.switch_cpus0.iq.FU_type_0::FloatMult            0      0.00%     56.23% # Type of FU issued
system.switch_cpus0.iq.FU_type_0::FloatMultAcc            0      0.00%     56.23% # Type of FU issued
system.switch_cpus0.iq.FU_type_0::FloatDiv            0      0.00%     56.23% # Type of FU issued
system.switch_cpus0.iq.FU_type_0::FloatMisc            0      0.00%     56.23% # Type of FU issued
system.switch_cpus0.iq.FU_type_0::FloatSqrt            0      0.00%     56.23% # Type of FU issued
system.switch_cpus0.iq.FU_type_0::SimdAdd            0      0.00%     56.23% # Type of FU issued
system.switch_cpus0.iq.FU_type_0::SimdAddAcc            0      0.00%     56.23% # Type of FU issued
system.switch_cpus0.iq.FU_type_0::SimdAlu      7356425      3.14%     59.36% # Type of FU issued
system.switch_cpus0.iq.FU_type_0::SimdCmp            0      0.00%     59.36% # Type of FU issued
system.switch_cpus0.iq.FU_type_0::SimdCvt            0      0.00%     59.36% # Type of FU issued
system.switch_cpus0.iq.FU_type_0::SimdMisc      6217754      2.65%     62.02% # Type of FU issued
system.switch_cpus0.iq.FU_type_0::SimdMult            0      0.00%     62.02% # Type of FU issued
system.switch_cpus0.iq.FU_type_0::SimdMultAcc            0      0.00%     62.02% # Type of FU issued
system.switch_cpus0.iq.FU_type_0::SimdShift            0      0.00%     62.02% # Type of FU issued
system.switch_cpus0.iq.FU_type_0::SimdShiftAcc            0      0.00%     62.02% # Type of FU issued
system.switch_cpus0.iq.FU_type_0::SimdDiv            0      0.00%     62.02% # Type of FU issued
system.switch_cpus0.iq.FU_type_0::SimdSqrt            0      0.00%     62.02% # Type of FU issued
system.switch_cpus0.iq.FU_type_0::SimdFloatAdd     18230903      7.78%     69.79% # Type of FU issued
system.switch_cpus0.iq.FU_type_0::SimdFloatAlu            0      0.00%     69.79% # Type of FU issued
system.switch_cpus0.iq.FU_type_0::SimdFloatCmp        50785      0.02%     69.81% # Type of FU issued
system.switch_cpus0.iq.FU_type_0::SimdFloatCvt      4749433      2.03%     71.84% # Type of FU issued
system.switch_cpus0.iq.FU_type_0::SimdFloatDiv      1226483      0.52%     72.36% # Type of FU issued
system.switch_cpus0.iq.FU_type_0::SimdFloatMisc            0      0.00%     72.36% # Type of FU issued
system.switch_cpus0.iq.FU_type_0::SimdFloatMult     17748027      7.57%     79.93% # Type of FU issued
system.switch_cpus0.iq.FU_type_0::SimdFloatMultAcc            0      0.00%     79.93% # Type of FU issued
system.switch_cpus0.iq.FU_type_0::SimdFloatSqrt         4234      0.00%     79.94% # Type of FU issued
system.switch_cpus0.iq.FU_type_0::SimdReduceAdd            0      0.00%     79.94% # Type of FU issued
system.switch_cpus0.iq.FU_type_0::SimdReduceAlu            0      0.00%     79.94% # Type of FU issued
system.switch_cpus0.iq.FU_type_0::SimdReduceCmp            0      0.00%     79.94% # Type of FU issued
system.switch_cpus0.iq.FU_type_0::SimdFloatReduceAdd            0      0.00%     79.94% # Type of FU issued
system.switch_cpus0.iq.FU_type_0::SimdFloatReduceCmp            0      0.00%     79.94% # Type of FU issued
system.switch_cpus0.iq.FU_type_0::SimdAes            0      0.00%     79.94% # Type of FU issued
system.switch_cpus0.iq.FU_type_0::SimdAesMix            0      0.00%     79.94% # Type of FU issued
system.switch_cpus0.iq.FU_type_0::SimdSha1Hash            0      0.00%     79.94% # Type of FU issued
system.switch_cpus0.iq.FU_type_0::SimdSha1Hash2            0      0.00%     79.94% # Type of FU issued
system.switch_cpus0.iq.FU_type_0::SimdSha256Hash            0      0.00%     79.94% # Type of FU issued
system.switch_cpus0.iq.FU_type_0::SimdSha256Hash2            0      0.00%     79.94% # Type of FU issued
system.switch_cpus0.iq.FU_type_0::SimdShaSigma2            0      0.00%     79.94% # Type of FU issued
system.switch_cpus0.iq.FU_type_0::SimdShaSigma3            0      0.00%     79.94% # Type of FU issued
system.switch_cpus0.iq.FU_type_0::SimdPredAlu            0      0.00%     79.94% # Type of FU issued
system.switch_cpus0.iq.FU_type_0::MemRead      9458837      4.03%     83.97% # Type of FU issued
system.switch_cpus0.iq.FU_type_0::MemWrite      7352283      3.14%     87.11% # Type of FU issued
system.switch_cpus0.iq.FU_type_0::FloatMemRead     26726682     11.40%     98.51% # Type of FU issued
system.switch_cpus0.iq.FU_type_0::FloatMemWrite      3500854      1.49%    100.00% # Type of FU issued
system.switch_cpus0.iq.FU_type_0::IprAccess            0      0.00%    100.00% # Type of FU issued
system.switch_cpus0.iq.FU_type_0::InstPrefetch            0      0.00%    100.00% # Type of FU issued
system.switch_cpus0.iq.FU_type_0::total     234441367                       # Type of FU issued
system.switch_cpus0.iq.fp_alu_accesses      116667748                       # Number of floating point alu accesses
system.switch_cpus0.iq.fp_inst_queue_reads    232890380                       # Number of floating instruction queue reads
system.switch_cpus0.iq.fp_inst_queue_wakeup_accesses    114862501                       # Number of floating instruction queue wakeup accesses
system.switch_cpus0.iq.fp_inst_queue_writes    118151498                       # Number of floating instruction queue writes
system.switch_cpus0.iq.fu_busy_cnt            2070597                       # FU busy when requested
system.switch_cpus0.iq.fu_busy_rate          0.008832                       # FU busy rate (busy events/executed inst)
system.switch_cpus0.iq.fu_full::No_OpClass            0      0.00%      0.00% # attempts to use FU when none available
system.switch_cpus0.iq.fu_full::IntAlu        1163077     56.17%     56.17% # attempts to use FU when none available
system.switch_cpus0.iq.fu_full::IntMult             0      0.00%     56.17% # attempts to use FU when none available
system.switch_cpus0.iq.fu_full::IntDiv              0      0.00%     56.17% # attempts to use FU when none available
system.switch_cpus0.iq.fu_full::FloatAdd        20685      1.00%     57.17% # attempts to use FU when none available
system.switch_cpus0.iq.fu_full::FloatCmp            0      0.00%     57.17% # attempts to use FU when none available
system.switch_cpus0.iq.fu_full::FloatCvt            0      0.00%     57.17% # attempts to use FU when none available
system.switch_cpus0.iq.fu_full::FloatMult            0      0.00%     57.17% # attempts to use FU when none available
system.switch_cpus0.iq.fu_full::FloatMultAcc            0      0.00%     57.17% # attempts to use FU when none available
system.switch_cpus0.iq.fu_full::FloatDiv            0      0.00%     57.17% # attempts to use FU when none available
system.switch_cpus0.iq.fu_full::FloatMisc            0      0.00%     57.17% # attempts to use FU when none available
system.switch_cpus0.iq.fu_full::FloatSqrt            0      0.00%     57.17% # attempts to use FU when none available
system.switch_cpus0.iq.fu_full::SimdAdd             0      0.00%     57.17% # attempts to use FU when none available
system.switch_cpus0.iq.fu_full::SimdAddAcc            0      0.00%     57.17% # attempts to use FU when none available
system.switch_cpus0.iq.fu_full::SimdAlu        225911     10.91%     68.08% # attempts to use FU when none available
system.switch_cpus0.iq.fu_full::SimdCmp             0      0.00%     68.08% # attempts to use FU when none available
system.switch_cpus0.iq.fu_full::SimdCvt             0      0.00%     68.08% # attempts to use FU when none available
system.switch_cpus0.iq.fu_full::SimdMisc        21675      1.05%     69.13% # attempts to use FU when none available
system.switch_cpus0.iq.fu_full::SimdMult            0      0.00%     69.13% # attempts to use FU when none available
system.switch_cpus0.iq.fu_full::SimdMultAcc            0      0.00%     69.13% # attempts to use FU when none available
system.switch_cpus0.iq.fu_full::SimdShift            0      0.00%     69.13% # attempts to use FU when none available
system.switch_cpus0.iq.fu_full::SimdShiftAcc            0      0.00%     69.13% # attempts to use FU when none available
system.switch_cpus0.iq.fu_full::SimdDiv             0      0.00%     69.13% # attempts to use FU when none available
system.switch_cpus0.iq.fu_full::SimdSqrt            0      0.00%     69.13% # attempts to use FU when none available
system.switch_cpus0.iq.fu_full::SimdFloatAdd        20653      1.00%     70.12% # attempts to use FU when none available
system.switch_cpus0.iq.fu_full::SimdFloatAlu            0      0.00%     70.12% # attempts to use FU when none available
system.switch_cpus0.iq.fu_full::SimdFloatCmp            0      0.00%     70.12% # attempts to use FU when none available
system.switch_cpus0.iq.fu_full::SimdFloatCvt        25519      1.23%     71.36% # attempts to use FU when none available
system.switch_cpus0.iq.fu_full::SimdFloatDiv         1611      0.08%     71.44% # attempts to use FU when none available
system.switch_cpus0.iq.fu_full::SimdFloatMisc            0      0.00%     71.44% # attempts to use FU when none available
system.switch_cpus0.iq.fu_full::SimdFloatMult        22437      1.08%     72.52% # attempts to use FU when none available
system.switch_cpus0.iq.fu_full::SimdFloatMultAcc            0      0.00%     72.52% # attempts to use FU when none available
system.switch_cpus0.iq.fu_full::SimdFloatSqrt            0      0.00%     72.52% # attempts to use FU when none available
system.switch_cpus0.iq.fu_full::SimdReduceAdd            0      0.00%     72.52% # attempts to use FU when none available
system.switch_cpus0.iq.fu_full::SimdReduceAlu            0      0.00%     72.52% # attempts to use FU when none available
system.switch_cpus0.iq.fu_full::SimdReduceCmp            0      0.00%     72.52% # attempts to use FU when none available
system.switch_cpus0.iq.fu_full::SimdFloatReduceAdd            0      0.00%     72.52% # attempts to use FU when none available
system.switch_cpus0.iq.fu_full::SimdFloatReduceCmp            0      0.00%     72.52% # attempts to use FU when none available
system.switch_cpus0.iq.fu_full::SimdAes             0      0.00%     72.52% # attempts to use FU when none available
system.switch_cpus0.iq.fu_full::SimdAesMix            0      0.00%     72.52% # attempts to use FU when none available
system.switch_cpus0.iq.fu_full::SimdSha1Hash            0      0.00%     72.52% # attempts to use FU when none available
system.switch_cpus0.iq.fu_full::SimdSha1Hash2            0      0.00%     72.52% # attempts to use FU when none available
system.switch_cpus0.iq.fu_full::SimdSha256Hash            0      0.00%     72.52% # attempts to use FU when none available
system.switch_cpus0.iq.fu_full::SimdSha256Hash2            0      0.00%     72.52% # attempts to use FU when none available
system.switch_cpus0.iq.fu_full::SimdShaSigma2            0      0.00%     72.52% # attempts to use FU when none available
system.switch_cpus0.iq.fu_full::SimdShaSigma3            0      0.00%     72.52% # attempts to use FU when none available
system.switch_cpus0.iq.fu_full::SimdPredAlu            0      0.00%     72.52% # attempts to use FU when none available
system.switch_cpus0.iq.fu_full::MemRead        317844     15.35%     87.87% # attempts to use FU when none available
system.switch_cpus0.iq.fu_full::MemWrite       148496      7.17%     95.04% # attempts to use FU when none available
system.switch_cpus0.iq.fu_full::FloatMemRead        73093      3.53%     98.57% # attempts to use FU when none available
system.switch_cpus0.iq.fu_full::FloatMemWrite        29596      1.43%    100.00% # attempts to use FU when none available
system.switch_cpus0.iq.fu_full::IprAccess            0      0.00%    100.00% # attempts to use FU when none available
system.switch_cpus0.iq.fu_full::InstPrefetch            0      0.00%    100.00% # attempts to use FU when none available
system.switch_cpus0.iq.int_alu_accesses     119730177                       # Number of integer alu accesses
system.switch_cpus0.iq.int_inst_queue_reads    337694330                       # Number of integer instruction queue reads
system.switch_cpus0.iq.int_inst_queue_wakeup_accesses    118011358                       # Number of integer instruction queue wakeup accesses
system.switch_cpus0.iq.int_inst_queue_writes    121300974                       # Number of integer instruction queue writes
system.switch_cpus0.iq.iqInstsAdded         234730998                       # Number of instructions added to the IQ (excludes non-spec)
system.switch_cpus0.iq.iqInstsIssued        234441367                       # Number of instructions issued
system.switch_cpus0.iq.iqNonSpecInstsAdded         3627                       # Number of non-speculative instructions added to the IQ
system.switch_cpus0.iq.iqSquashedInstsExamined      4715112                       # Number of squashed instructions iterated over during squash; mainly for profiling
system.switch_cpus0.iq.iqSquashedInstsIssued        17833                       # Number of squashed instructions issued
system.switch_cpus0.iq.iqSquashedNonSpecRemoved         3204                       # Number of squashed non-spec instructions that were removed
system.switch_cpus0.iq.iqSquashedOperandsExamined      5250832                       # Number of squashed operands that are examined and possibly removed from graph
system.switch_cpus0.iq.issued_per_cycle::samples     99613546                       # Number of insts issued each cycle
system.switch_cpus0.iq.issued_per_cycle::mean     2.353509                       # Number of insts issued each cycle
system.switch_cpus0.iq.issued_per_cycle::stdev     2.529017                       # Number of insts issued each cycle
system.switch_cpus0.iq.issued_per_cycle::underflows            0      0.00%      0.00% # Number of insts issued each cycle
system.switch_cpus0.iq.issued_per_cycle::0     41528661     41.69%     41.69% # Number of insts issued each cycle
system.switch_cpus0.iq.issued_per_cycle::1      6520885      6.55%     48.24% # Number of insts issued each cycle
system.switch_cpus0.iq.issued_per_cycle::2      9379849      9.42%     57.65% # Number of insts issued each cycle
system.switch_cpus0.iq.issued_per_cycle::3      9716064      9.75%     67.41% # Number of insts issued each cycle
system.switch_cpus0.iq.issued_per_cycle::4      9459933      9.50%     76.90% # Number of insts issued each cycle
system.switch_cpus0.iq.issued_per_cycle::5      8074885      8.11%     85.01% # Number of insts issued each cycle
system.switch_cpus0.iq.issued_per_cycle::6      6725636      6.75%     91.76% # Number of insts issued each cycle
system.switch_cpus0.iq.issued_per_cycle::7      4216445      4.23%     95.99% # Number of insts issued each cycle
system.switch_cpus0.iq.issued_per_cycle::8      3991188      4.01%    100.00% # Number of insts issued each cycle
system.switch_cpus0.iq.issued_per_cycle::overflows            0      0.00%    100.00% # Number of insts issued each cycle
system.switch_cpus0.iq.issued_per_cycle::min_value            0                       # Number of insts issued each cycle
system.switch_cpus0.iq.issued_per_cycle::max_value            8                       # Number of insts issued each cycle
system.switch_cpus0.iq.issued_per_cycle::total     99613546                       # Number of insts issued each cycle
system.switch_cpus0.iq.rate                  2.344471                       # Inst issue rate
system.switch_cpus0.iq.vec_alu_accesses             0                       # Number of vector alu accesses
system.switch_cpus0.iq.vec_inst_queue_reads            0                       # Number of vector instruction queue reads
system.switch_cpus0.iq.vec_inst_queue_wakeup_accesses            0                       # Number of vector instruction queue wakeup accesses
system.switch_cpus0.iq.vec_inst_queue_writes            0                       # Number of vector instruction queue writes
system.switch_cpus0.memDep0.conflictingLoads      2787566                       # Number of conflicting loads.
system.switch_cpus0.memDep0.conflictingStores       521922                       # Number of conflicting stores.
system.switch_cpus0.memDep0.insertedLoads     35070083                       # Number of loads inserted to the mem dependence unit.
system.switch_cpus0.memDep0.insertedStores     11012032                       # Number of stores inserted to the mem dependence unit.
system.switch_cpus0.misc_regfile_reads       89481878                       # number of misc regfile reads
system.switch_cpus0.misc_regfile_writes             1                       # number of misc regfile writes
system.switch_cpus0.numCycles                99997564                       # number of cpu cycles simulated
system.switch_cpus0.numWorkItemsCompleted            0                       # number of work items this cpu completed
system.switch_cpus0.numWorkItemsStarted             0                       # number of work items this cpu started
system.switch_cpus0.timesIdled                  11267                       # Number of times that the entire CPU went into an idle state and unscheduled itself
system.switch_cpus1.cc_regfile_reads        204810815                       # number of cc regfile reads
system.switch_cpus1.cc_regfile_writes       100703950                       # number of cc regfile writes
system.switch_cpus1.committedInsts          250000004                       # Number of Instructions Simulated
system.switch_cpus1.committedOps            450562967                       # Number of Ops (including micro ops) Simulated
system.switch_cpus1.cpi                      0.399990                       # CPI: Cycles Per Instruction
system.switch_cpus1.cpi_total                0.399990                       # CPI: Total CPI of All Threads
system.switch_cpus1.fp_regfile_reads        147777993                       # number of floating regfile reads
system.switch_cpus1.fp_regfile_writes        84846374                       # number of floating regfile writes
system.switch_cpus1.idleCycles                  95763                       # Total number of cycles that the CPU has spent unscheduled due to idling
system.switch_cpus1.iew.branchMispredicts      1114766                       # Number of branch mispredicts detected at execute
system.switch_cpus1.iew.exec_branches        46357086                       # Number of branches executed
system.switch_cpus1.iew.exec_nop                    0                       # number of nop insts executed
system.switch_cpus1.iew.exec_rate            4.809821                       # Inst execution rate
system.switch_cpus1.iew.exec_refs           140947340                       # number of memory reference insts executed
system.switch_cpus1.iew.exec_stores          42745710                       # Number of stores executed
system.switch_cpus1.iew.exec_swp                    0                       # number of swp insts executed
system.switch_cpus1.iew.iewBlockCycles        6394322                       # Number of cycles IEW is blocking
system.switch_cpus1.iew.iewDispLoadInsts    102948961                       # Number of dispatched load instructions
system.switch_cpus1.iew.iewDispNonSpecInsts            6                       # Number of dispatched non-speculative instructions
system.switch_cpus1.iew.iewDispSquashedInsts          383                       # Number of squashed instructions skipped by dispatch
system.switch_cpus1.iew.iewDispStoreInsts     45389250                       # Number of dispatched store instructions
system.switch_cpus1.iew.iewDispatchedInsts    503503005                       # Number of instructions dispatched to IQ
system.switch_cpus1.iew.iewExecLoadInsts     98201630                       # Number of load instructions executed
system.switch_cpus1.iew.iewExecSquashedInsts      3007397                       # Number of squashed instructions skipped in execute
system.switch_cpus1.iew.iewExecutedInsts    480970430                       # Number of executed instructions
system.switch_cpus1.iew.iewIQFullEvents          9613                       # Number of times the IQ has become full, causing a stall
system.switch_cpus1.iew.iewIdleCycles               0                       # Number of cycles IEW is idle
system.switch_cpus1.iew.iewLSQFullEvents       196266                       # Number of times the LSQ has become full, causing a stall
system.switch_cpus1.iew.iewSquashCycles        996893                       # Number of cycles IEW is squashing
system.switch_cpus1.iew.iewUnblockCycles       210458                       # Number of cycles IEW is unblocking
system.switch_cpus1.iew.memOrderViolationEvents        18566                       # Number of memory order violations
system.switch_cpus1.iew.predictedNotTakenIncorrect       728182                       # Number of branches that were predicted not taken incorrectly
system.switch_cpus1.iew.predictedTakenIncorrect       386584                       # Number of branches that were predicted taken incorrectly
system.switch_cpus1.iew.wb_consumers        629430378                       # num instructions consuming a value
system.switch_cpus1.iew.wb_count            479125784                       # cumulative count of insts written-back
system.switch_cpus1.iew.wb_fanout            0.567201                       # average fanout of values written-back
system.switch_cpus1.iew.wb_producers        357013850                       # num instructions producing a value
system.switch_cpus1.iew.wb_rate              4.791375                       # insts written-back per cycle
system.switch_cpus1.iew.wb_sent             480379948                       # cumulative count of insts sent to commit
system.switch_cpus1.int_regfile_reads       665359082                       # number of integer regfile reads
system.switch_cpus1.int_regfile_writes      299669320                       # number of integer regfile writes
system.switch_cpus1.ipc                      2.500061                       # IPC: Instructions Per Cycle
system.switch_cpus1.ipc_total                2.500061                       # IPC: Total IPC of All Threads
system.switch_cpus1.iq.FU_type_0::No_OpClass      2597853      0.54%      0.54% # Type of FU issued
system.switch_cpus1.iq.FU_type_0::IntAlu    289951101     59.91%     60.45% # Type of FU issued
system.switch_cpus1.iq.FU_type_0::IntMult       973405      0.20%     60.65% # Type of FU issued
system.switch_cpus1.iq.FU_type_0::IntDiv            0      0.00%     60.65% # Type of FU issued
system.switch_cpus1.iq.FU_type_0::FloatAdd      1295051      0.27%     60.92% # Type of FU issued
system.switch_cpus1.iq.FU_type_0::FloatCmp            0      0.00%     60.92% # Type of FU issued
system.switch_cpus1.iq.FU_type_0::FloatCvt            0      0.00%     60.92% # Type of FU issued
system.switch_cpus1.iq.FU_type_0::FloatMult            0      0.00%     60.92% # Type of FU issued
system.switch_cpus1.iq.FU_type_0::FloatMultAcc            0      0.00%     60.92% # Type of FU issued
system.switch_cpus1.iq.FU_type_0::FloatDiv            0      0.00%     60.92% # Type of FU issued
system.switch_cpus1.iq.FU_type_0::FloatMisc            0      0.00%     60.92% # Type of FU issued
system.switch_cpus1.iq.FU_type_0::FloatSqrt            0      0.00%     60.92% # Type of FU issued
system.switch_cpus1.iq.FU_type_0::SimdAdd            0      0.00%     60.92% # Type of FU issued
system.switch_cpus1.iq.FU_type_0::SimdAddAcc            0      0.00%     60.92% # Type of FU issued
system.switch_cpus1.iq.FU_type_0::SimdAlu      3134835      0.65%     61.56% # Type of FU issued
system.switch_cpus1.iq.FU_type_0::SimdCmp            0      0.00%     61.56% # Type of FU issued
system.switch_cpus1.iq.FU_type_0::SimdCvt            0      0.00%     61.56% # Type of FU issued
system.switch_cpus1.iq.FU_type_0::SimdMisc       204020      0.04%     61.61% # Type of FU issued
system.switch_cpus1.iq.FU_type_0::SimdMult            0      0.00%     61.61% # Type of FU issued
system.switch_cpus1.iq.FU_type_0::SimdMultAcc            0      0.00%     61.61% # Type of FU issued
system.switch_cpus1.iq.FU_type_0::SimdShift            0      0.00%     61.61% # Type of FU issued
system.switch_cpus1.iq.FU_type_0::SimdShiftAcc            0      0.00%     61.61% # Type of FU issued
system.switch_cpus1.iq.FU_type_0::SimdDiv            0      0.00%     61.61% # Type of FU issued
system.switch_cpus1.iq.FU_type_0::SimdSqrt            0      0.00%     61.61% # Type of FU issued
system.switch_cpus1.iq.FU_type_0::SimdFloatAdd     17532715      3.62%     65.23% # Type of FU issued
system.switch_cpus1.iq.FU_type_0::SimdFloatAlu            0      0.00%     65.23% # Type of FU issued
system.switch_cpus1.iq.FU_type_0::SimdFloatCmp        60184      0.01%     65.24% # Type of FU issued
system.switch_cpus1.iq.FU_type_0::SimdFloatCvt      7672089      1.59%     66.83% # Type of FU issued
system.switch_cpus1.iq.FU_type_0::SimdFloatDiv       602006      0.12%     66.95% # Type of FU issued
system.switch_cpus1.iq.FU_type_0::SimdFloatMisc            0      0.00%     66.95% # Type of FU issued
system.switch_cpus1.iq.FU_type_0::SimdFloatMult     17421805      3.60%     70.55% # Type of FU issued
system.switch_cpus1.iq.FU_type_0::SimdFloatMultAcc            0      0.00%     70.55% # Type of FU issued
system.switch_cpus1.iq.FU_type_0::SimdFloatSqrt        41994      0.01%     70.56% # Type of FU issued
system.switch_cpus1.iq.FU_type_0::SimdReduceAdd            0      0.00%     70.56% # Type of FU issued
system.switch_cpus1.iq.FU_type_0::SimdReduceAlu            0      0.00%     70.56% # Type of FU issued
system.switch_cpus1.iq.FU_type_0::SimdReduceCmp            0      0.00%     70.56% # Type of FU issued
system.switch_cpus1.iq.FU_type_0::SimdFloatReduceAdd            0      0.00%     70.56% # Type of FU issued
system.switch_cpus1.iq.FU_type_0::SimdFloatReduceCmp            0      0.00%     70.56% # Type of FU issued
[...]
system.switch_cpus3.commit.numCommittedDist::stdev     3.314244                       # Number of insts commited each cycle
system.switch_cpus3.commit.numCommittedDist::underflows            0      0.00%      0.00% # Number of insts commited each cycle
system.switch_cpus3.commit.numCommittedDist::0     37197761     38.35%     38.35% # Number of insts commited each cycle
system.switch_cpus3.commit.numCommittedDist::1     15153656     15.62%     53.97% # Number of insts commited each cycle
system.switch_cpus3.commit.numCommittedDist::2      4648204      4.79%     58.76% # Number of insts commited each cycle
system.switch_cpus3.commit.numCommittedDist::3      4667353      4.81%     63.57% # Number of insts commited each cycle
system.switch_cpus3.commit.numCommittedDist::4      5900030      6.08%     69.66% # Number of insts commited each cycle
system.switch_cpus3.commit.numCommittedDist::5      1958269      2.02%     71.68% # Number of insts commited each cycle
system.switch_cpus3.commit.numCommittedDist::6      2002924      2.06%     73.74% # Number of insts commited each cycle
system.switch_cpus3.commit.numCommittedDist::7       332718      0.34%     74.08% # Number of insts commited each cycle
system.switch_cpus3.commit.numCommittedDist::8     25139543     25.92%    100.00% # Number of insts commited each cycle
system.switch_cpus3.commit.numCommittedDist::overflows            0      0.00%    100.00% # Number of insts commited each cycle
system.switch_cpus3.commit.numCommittedDist::min_value            0                       # Number of insts commited each cycle
system.switch_cpus3.commit.numCommittedDist::max_value            8                       # Number of insts commited each cycle
system.switch_cpus3.commit.numCommittedDist::total     97000458                       # Number of insts commited each cycle
system.switch_cpus3.commit.instsCommitted    188475971                       # Number of instructions committed
system.switch_cpus3.commit.opsCommitted     287306502                       # Number of ops (including micro ops) committed
system.switch_cpus3.commit.memRefs           56725287                       # Number of memory references committed
system.switch_cpus3.commit.loads             46091201                       # Number of loads committed
system.switch_cpus3.commit.amos                     0                       # Number of atomic instructions committed
system.switch_cpus3.commit.membars                  0                       # Number of memory barriers committed
system.switch_cpus3.commit.branches          18489816                       # Number of branches committed
system.switch_cpus3.commit.vector                   0                       # Number of committed Vector instructions.
system.switch_cpus3.commit.floating         160848787                       # Number of committed floating point instructions.
system.switch_cpus3.commit.integer          173590351                       # Number of committed integer instructions.
system.switch_cpus3.commit.functionCalls       213969                       # Number of function calls committed.
system.switch_cpus3.commit.committedInstType_0::No_OpClass          991      0.00%      0.00% # Class of committed instruction
system.switch_cpus3.commit.committedInstType_0::IntAlu    139836610     48.67%     48.67% # Class of committed instruction
system.switch_cpus3.commit.committedInstType_0::IntMult      1481174      0.52%     49.19% # Class of committed instruction
system.switch_cpus3.commit.committedInstType_0::IntDiv            0      0.00%     49.19% # Class of committed instruction
system.switch_cpus3.commit.committedInstType_0::FloatAdd      2568340      0.89%     50.08% # Class of committed instruction
system.switch_cpus3.commit.committedInstType_0::FloatCmp            0      0.00%     50.08% # Class of committed instruction
system.switch_cpus3.commit.committedInstType_0::FloatCvt            0      0.00%     50.08% # Class of committed instruction
system.switch_cpus3.commit.committedInstType_0::FloatMult            0      0.00%     50.08% # Class of committed instruction
system.switch_cpus3.commit.committedInstType_0::FloatMultAcc            0      0.00%     50.08% # Class of committed instruction
system.switch_cpus3.commit.committedInstType_0::FloatDiv            0      0.00%     50.08% # Class of committed instruction
system.switch_cpus3.commit.committedInstType_0::FloatMisc            0      0.00%     50.08% # Class of committed instruction
system.switch_cpus3.commit.committedInstType_0::FloatSqrt            0      0.00%     50.08% # Class of committed instruction
system.switch_cpus3.commit.committedInstType_0::SimdAdd            0      0.00%     50.08% # Class of committed instruction
system.switch_cpus3.commit.committedInstType_0::SimdAddAcc            0      0.00%     50.08% # Class of committed instruction
system.switch_cpus3.commit.committedInstType_0::SimdAlu      3872126      1.35%     51.43% # Class of committed instruction
system.switch_cpus3.commit.committedInstType_0::SimdCmp            0      0.00%     51.43% # Class of committed instruction
system.switch_cpus3.commit.committedInstType_0::SimdCvt            0      0.00%     51.43% # Class of committed instruction
system.switch_cpus3.commit.committedInstType_0::SimdMisc      1497783      0.52%     51.95% # Class of committed instruction
system.switch_cpus3.commit.committedInstType_0::SimdMult            0      0.00%     51.95% # Class of committed instruction
system.switch_cpus3.commit.committedInstType_0::SimdMultAcc            0      0.00%     51.95% # Class of committed instruction
system.switch_cpus3.commit.committedInstType_0::SimdShift            0      0.00%     51.95% # Class of committed instruction
system.switch_cpus3.commit.committedInstType_0::SimdShiftAcc            0      0.00%     51.95% # Class of committed instruction
system.switch_cpus3.commit.committedInstType_0::SimdDiv            0      0.00%     51.95% # Class of committed instruction
system.switch_cpus3.commit.committedInstType_0::SimdSqrt            0      0.00%     51.95% # Class of committed instruction
system.switch_cpus3.commit.committedInstType_0::SimdFloatAdd     31840828     11.08%     63.03% # Class of committed instruction
system.switch_cpus3.commit.committedInstType_0::SimdFloatAlu            0      0.00%     63.03% # Class of committed instruction
system.switch_cpus3.commit.committedInstType_0::SimdFloatCmp            0      0.00%     63.03% # Class of committed instruction
system.switch_cpus3.commit.committedInstType_0::SimdFloatCvt      9179848      3.20%     66.23% # Class of committed instruction
system.switch_cpus3.commit.committedInstType_0::SimdFloatDiv      1718598      0.60%     66.83% # Class of committed instruction
system.switch_cpus3.commit.committedInstType_0::SimdFloatMisc            0      0.00%     66.83% # Class of committed instruction
system.switch_cpus3.commit.committedInstType_0::SimdFloatMult     37104735     12.91%     79.74% # Class of committed instruction
system.switch_cpus3.commit.committedInstType_0::SimdFloatMultAcc            0      0.00%     79.74% # Class of committed instruction
system.switch_cpus3.commit.committedInstType_0::SimdFloatSqrt      1480182      0.52%     80.26% # Class of committed instruction
system.switch_cpus3.commit.committedInstType_0::SimdReduceAdd            0      0.00%     80.26% # Class of committed instruction
system.switch_cpus3.commit.committedInstType_0::SimdReduceAlu            0      0.00%     80.26% # Class of committed instruction
system.switch_cpus3.commit.committedInstType_0::SimdReduceCmp            0      0.00%     80.26% # Class of committed instruction
system.switch_cpus3.commit.committedInstType_0::SimdFloatReduceAdd            0      0.00%     80.26% # Class of committed instruction
system.switch_cpus3.commit.committedInstType_0::SimdFloatReduceCmp            0      0.00%     80.26% # Class of committed instruction
system.switch_cpus3.commit.committedInstType_0::SimdAes            0      0.00%     80.26% # Class of committed instruction
system.switch_cpus3.commit.committedInstType_0::SimdAesMix            0      0.00%     80.26% # Class of committed instruction
system.switch_cpus3.commit.committedInstType_0::SimdSha1Hash            0      0.00%     80.26% # Class of committed instruction
system.switch_cpus3.commit.committedInstType_0::SimdSha1Hash2            0      0.00%     80.26% # Class of committed instruction
system.switch_cpus3.commit.committedInstType_0::SimdSha256Hash            0      0.00%     80.26% # Class of committed instruction
system.switch_cpus3.commit.committedInstType_0::SimdSha256Hash2            0      0.00%     80.26% # Class of committed instruction
system.switch_cpus3.commit.committedInstType_0::SimdShaSigma2            0      0.00%     80.26% # Class of committed instruction
system.switch_cpus3.commit.committedInstType_0::SimdShaSigma3            0      0.00%     80.26% # Class of committed instruction
system.switch_cpus3.commit.committedInstType_0::SimdPredAlu            0      0.00%     80.26% # Class of committed instruction
system.switch_cpus3.commit.committedInstType_0::MemRead      8090904      2.82%     83.07% # Class of committed instruction
system.switch_cpus3.commit.committedInstType_0::MemWrite      2998539      1.04%     84.12% # Class of committed instruction
system.switch_cpus3.commit.committedInstType_0::FloatMemRead     38000297     13.23%     97.34% # Class of committed instruction
system.switch_cpus3.commit.committedInstType_0::FloatMemWrite      7635547      2.66%    100.00% # Class of committed instruction
system.switch_cpus3.commit.committedInstType_0::IprAccess            0      0.00%    100.00% # Class of committed instruction
system.switch_cpus3.commit.committedInstType_0::InstPrefetch            0      0.00%    100.00% # Class of committed instruction
system.switch_cpus3.commit.committedInstType_0::total    287306502                       # Class of committed instruction
system.switch_cpus3.commit.commitEligibleSamples     25139543                       # number cycles where commit BW limit reached
system.switch_cpus3.decode.idleCycles         8119204                       # Number of cycles decode is idle
system.switch_cpus3.decode.blockedCycles     50733423                       # Number of cycles decode is blocked
system.switch_cpus3.decode.runCycles         25445269                       # Number of cycles decode is running
system.switch_cpus3.decode.unblockCycles     15473582                       # Number of cycles decode is unblocking
system.switch_cpus3.decode.squashCycles        208759                       # Number of cycles decode is squashing
system.switch_cpus3.decode.branchResolved      8709763                       # Number of times decode resolved a  branch
system.switch_cpus3.decode.branchMispred           42                       # Number of times decode detected a branch misprediction
system.switch_cpus3.decode.decodedInsts     314172668                       # Number of instructions handled by decode
system.switch_cpus3.decode.squashedInsts          171                       # Number of squashed instructions handled by decode
system.switch_cpus3.dtb.rdAccesses           48103405                       # TLB accesses on read requests
system.switch_cpus3.dtb.wrAccesses           12955720                       # TLB accesses on write requests
system.switch_cpus3.dtb.rdMisses                47520                       # TLB misses on read requests
system.switch_cpus3.dtb.wrMisses                    0                       # TLB misses on write requests
system.switch_cpus3.dtb.walker.power_state.pwrStateResidencyTicks::UNDEFINED 16848450067617                       # Cumulative time (in ticks) in various power states
system.switch_cpus3.fetch.icacheStallCycles       207987                       # Number of cycles fetch is stalled on an Icache miss
system.switch_cpus3.fetch.insts             208584477                       # Number of instructions fetch has processed
system.switch_cpus3.fetch.branches           20322695                       # Number of branches that fetch encountered
system.switch_cpus3.fetch.predictedBranches      9546310                       # Number of branches that fetch has predicted taken
system.switch_cpus3.fetch.cycles             99563452                       # Number of cycles fetch has run and was not squashing or blocked
system.switch_cpus3.fetch.squashCycles         417602                       # Number of cycles fetch has spent squashing
system.switch_cpus3.fetch.cacheLines         23685158                       # Number of cache lines fetched
system.switch_cpus3.fetch.icacheSquashes           59                       # Number of outstanding Icache misses that were squashed
system.switch_cpus3.fetch.nisnDist::samples     99980240                       # Number of instructions fetched each cycle (Total)
system.switch_cpus3.fetch.nisnDist::mean     3.188145                       # Number of instructions fetched each cycle (Total)
system.switch_cpus3.fetch.nisnDist::stdev     3.453704                       # Number of instructions fetched each cycle (Total)
system.switch_cpus3.fetch.nisnDist::underflows            0      0.00%      0.00% # Number of instructions fetched each cycle (Total)
system.switch_cpus3.fetch.nisnDist::0        44753902     44.76%     44.76% # Number of instructions fetched each cycle (Total)
system.switch_cpus3.fetch.nisnDist::1         4620426      4.62%     49.38% # Number of instructions fetched each cycle (Total)
system.switch_cpus3.fetch.nisnDist::2         4871910      4.87%     54.26% # Number of instructions fetched each cycle (Total)
system.switch_cpus3.fetch.nisnDist::3         4262523      4.26%     58.52% # Number of instructions fetched each cycle (Total)
system.switch_cpus3.fetch.nisnDist::4         5582905      5.58%     64.10% # Number of instructions fetched each cycle (Total)
system.switch_cpus3.fetch.nisnDist::5         4000980      4.00%     68.11% # Number of instructions fetched each cycle (Total)
system.switch_cpus3.fetch.nisnDist::6         1866419      1.87%     69.97% # Number of instructions fetched each cycle (Total)
system.switch_cpus3.fetch.nisnDist::7         2104712      2.11%     72.08% # Number of instructions fetched each cycle (Total)
system.switch_cpus3.fetch.nisnDist::8        27916463     27.92%    100.00% # Number of instructions fetched each cycle (Total)
system.switch_cpus3.fetch.nisnDist::overflows            0      0.00%    100.00% # Number of instructions fetched each cycle (Total)
system.switch_cpus3.fetch.nisnDist::min_value            0                       # Number of instructions fetched each cycle (Total)
system.switch_cpus3.fetch.nisnDist::max_value            8                       # Number of instructions fetched each cycle (Total)
system.switch_cpus3.fetch.nisnDist::total     99980240                       # Number of instructions fetched each cycle (Total)
system.switch_cpus3.fetch.branchRate         0.203232                       # Number of branch fetches per cycle
system.switch_cpus3.fetch.rate               2.085896                       # Number of inst fetches per cycle
system.switch_cpus3.itb.rdAccesses                  0                       # TLB accesses on read requests
system.switch_cpus3.itb.wrAccesses           23685158                       # TLB accesses on write requests
system.switch_cpus3.itb.rdMisses                    0                       # TLB misses on read requests
system.switch_cpus3.itb.wrMisses                   10                       # TLB misses on write requests
system.switch_cpus3.itb.walker.power_state.pwrStateResidencyTicks::UNDEFINED 16848450067617                       # Cumulative time (in ticks) in various power states
system.switch_cpus3.lsq0.forwLoads             368891                       # Number of loads that had data forwarded from stores
system.switch_cpus3.lsq0.squashedLoads        2807601                       # Number of loads squashed
system.switch_cpus3.lsq0.ignoredResponses            8                       # Number of memory responses ignored because the instruction is squashed
system.switch_cpus3.lsq0.memOrderViolation          460                       # Number of memory ordering violations
system.switch_cpus3.lsq0.squashedStores       2760885                       # Number of stores squashed
system.switch_cpus3.lsq0.rescheduledLoads            0                       # Number of loads that were rescheduled
system.switch_cpus3.lsq0.blockedByCache             1                       # Number of times an access to memory failed due to the cache being blocked
system.switch_cpus3.power_state.pwrStateResidencyTicks::OFF  33299199135                       # Cumulative time (in ticks) in various power states
system.switch_cpus3.rename.squashCycles        208759                       # Number of cycles rename is squashing
system.switch_cpus3.rename.idleCycles        13333107                       # Number of cycles rename is idle
system.switch_cpus3.rename.blockCycles       29443373                       # Number of cycles rename is blocking
system.switch_cpus3.rename.serializeStallCycles            0                       # count of cycles rename stalledfor serializing inst
system.switch_cpus3.rename.runCycles         35536641                       # Number of cycles rename is running
system.switch_cpus3.rename.unblockCycles     21458357                       # Number of cycles rename is unblocking
system.switch_cpus3.rename.renamedInsts     312785867                       # Number of instructions processed by rename
system.switch_cpus3.rename.ROBFullEvents        39072                       # Number of times rename has blocked due to ROB full
system.switch_cpus3.rename.IQFullEvents      15321257                       # Number of times rename has blocked due to IQ full
system.switch_cpus3.rename.LQFullEvents       2122034                       # Number of times rename has blocked due to LQ full
system.switch_cpus3.rename.SQFullEvents            30                       # Number of times rename has blocked due to SQ full
system.switch_cpus3.rename.renamedOperands    328504907                       # Number of destination operands rename has renamed
system.switch_cpus3.rename.lookups          818041804                       # Number of register rename lookups that rename has made
system.switch_cpus3.rename.intLookups       259347836                       # Number of integer rename lookups
system.switch_cpus3.rename.fpLookups        323879633                       # Number of floating rename lookups
system.switch_cpus3.rename.committedMaps    302396688                       # Number of HB maps that are committed
system.switch_cpus3.rename.undoneMaps        26108134                       # Number of HB maps that are undone due to squashing
system.switch_cpus3.rename.serializing              0                       # count of serializing insts renamed
system.switch_cpus3.rename.tempSerializing            0                       # count of temporary serializing insts renamed
system.switch_cpus3.rename.skidInsts         63670365                       # count of insts added to the skid buffer
system.switch_cpus3.rob.reads               382291641                       # The number of ROB reads
system.switch_cpus3.rob.writes              623841370                       # The number of ROB writes
system.switch_cpus3.thread0.numInsts        188475971                       # Number of Instructions committed
system.switch_cpus3.thread0.numOps          287306502                       # Number of Ops committed
system.switch_cpus3.thread0.numMemRefs              0                       # Number of Memory References
system.voltage_domain.voltage                       1                       # Voltage in Volts

---------- End Simulation Statistics   ----------
