Command line:
./runscript_pride.sh mix20 RFM5.BR2.4C 4 2017 --rh_defense --rh_mitigation=RFM --rh_rfm_per_trefi=5 --rh_rfm_blast_radius=2 --rh_rfm_maxacts_per_trefi=79
Global frequency set at 1000000000000 ticks per second
RFM details - rfm_act_threshold: 15, blast_radius: 2, delay_per_rfm: 175000 ps. sample_rate: 0.062500
RH Defense config: RFM, Bus Delay: 0, rfms_per_trefi: 5, rfm_act_threshold: 15, blast_radius: 2,rfm_delay_per_act: 45000 ps.
DRAM config: RowsPerBank: 65536, BanksPerRank: 32, RanksPerChannel: 1
warn: Sockets disabled, not accepting gdb connections
warn: CoherentXBar system.cpu0.mmucache.mmubus has no snooping ports attached!
warn: CoherentXBar system.cpu1.mmucache.mmubus has no snooping ports attached!
warn: CoherentXBar system.cpu2.mmucache.mmubus has no snooping ports attached!
warn: CoherentXBar system.cpu3.mmucache.mmubus has no snooping ports attached!
warn: Checkpoints for file descriptors currently do not work.
warn: Checkpoints for file descriptors currently do not work.
warn: Checkpoints for file descriptors currently do not work.
warn: Checkpoints for file descriptors currently do not work.
gem5 Simulator System.  http://gem5.org
gem5 is copyrighted software; use the --copyright option for details.

gem5 version 20.1.0.5
gem5 compiled Jul 12 2024 12:42:38
gem5 started Jul 22 2024 17:39:37
gem5 executing on a07dda8b130c, pid 89565
command line: /home/user/PrIDE/performance/gem5/build/X86/gem5.opt --outdir=/home/user/PrIDE/performance/gem5/stats/pride_multiprogram_16GBmem_250Mn.SPEC2017.C4/RFM5.BR2.4C/mix20 /home/user/PrIDE/performance/gem5/configs/example/se_rq_spec_config_multicore.py --redirects /lib64=/home/utils/gcc-6.2.0/lib64 --benchmark=mix20 --benchmark_stdout=/home/user/PrIDE/performance/gem5/stats/pride_multiprogram_16GBmem_250Mn.SPEC2017.C4/RFM5.BR2.4C/mix20/mix20.out --benchmark_stderr=/home/user/PrIDE/performance/gem5/stats/pride_multiprogram_16GBmem_250Mn.SPEC2017.C4/RFM5.BR2.4C/mix20/mix20.err --spec-version=2017 --rh_defense --rh_mitigation=RFM --rh_rfm_per_trefi=5 --rh_rfm_blast_radius=2 --rh_rfm_maxacts_per_trefi=79 --num-cpus=4 --mem-size=16GB --mem-type=DDR5_2400_32x4 --mem-ranks=1 --checkpoint-dir=/home/user/PrIDE/performance/gem5/cpts/multiprogram_16GBmem_25Bn.SPEC2017.C4/mix20-1-ref-x86 --checkpoint-restore=25000000000 --at-instruction --cpu-type DerivO3CPU --caches --l2cache --l1d_size=32kB --l1i_size=32kB --l2_size=256kB --l1d_assoc=8 --l1i_assoc=8 --l2_assoc=16 --maxinsts=250000000 --prog-interval=300Hz

info: Standard input is not a terminal, disabling listeners.
Benchmark- 0   deepsjeng
Selected benchmark
--> deepsjeng
CMD: ['/opt/spec2017/benchspec/CPU/531.deepsjeng_r/run/run_base_refrate_gem5_se-m64.0000/deepsjeng_r_base.gem5_se-m64', '/opt/spec2017/benchspec/CPU/531.deepsjeng_r/run/run_base_refrate_gem5_se-m64.0000/ref.txt']
CWD: /opt/spec2017/benchspec/CPU/531.deepsjeng_r/run/run_base_refrate_gem5_se-m64.0000/
Process stdout file: /home/user/PrIDE/performance/gem5/stats/pride_multiprogram_16GBmem_250Mn.SPEC2017.C4/RFM5.BR2.4C/mix20/mix20.out_0
Process stderr file: /home/user/PrIDE/performance/gem5/stats/pride_multiprogram_16GBmem_250Mn.SPEC2017.C4/RFM5.BR2.4C/mix20/mix20.err_0
Benchmark- 1   mcf
Selected benchmark
--> mcf
CMD: ['/opt/spec2017/benchspec/CPU/505.mcf_r/run/run_base_refrate_gem5_se-m64.0000/mcf_r_base.gem5_se-m64', '/opt/spec2017/benchspec/CPU/505.mcf_r/run/run_base_refrate_gem5_se-m64.0000/inp.in']
CWD: /opt/spec2017/benchspec/CPU/505.mcf_r/run/run_base_refrate_gem5_se-m64.0000/
Process stdout file: /home/user/PrIDE/performance/gem5/stats/pride_multiprogram_16GBmem_250Mn.SPEC2017.C4/RFM5.BR2.4C/mix20/mix20.out_1
Process stderr file: /home/user/PrIDE/performance/gem5/stats/pride_multiprogram_16GBmem_250Mn.SPEC2017.C4/RFM5.BR2.4C/mix20/mix20.err_1
Benchmark- 2   namd
Selected benchmark
--> namd
CMD: ['/opt/spec2017/benchspec/CPU/508.namd_r/run/run_base_refrate_gem5_se-m64.0000/namd_r_base.gem5_se-m64', '--input', '/opt/spec2017/benchspec/CPU/508.namd_r/run/run_base_refrate_gem5_se-m64.0000/apoa1.input', '--output', '/opt/spec2017/benchspec/CPU/508.namd_r/run/run_base_refrate_gem5_se-m64.0000/apoa1.ref.output', '--iterations', '65']
CWD: /opt/spec2017/benchspec/CPU/508.namd_r/run/run_base_refrate_gem5_se-m64.0000/
Process stdout file: /home/user/PrIDE/performance/gem5/stats/pride_multiprogram_16GBmem_250Mn.SPEC2017.C4/RFM5.BR2.4C/mix20/mix20.out_2
Process stderr file: /home/user/PrIDE/performance/gem5/stats/pride_multiprogram_16GBmem_250Mn.SPEC2017.C4/RFM5.BR2.4C/mix20/mix20.err_2
Benchmark- 3   roms
Selected benchmark
--> roms
CMD: ['/opt/spec2017/benchspec/CPU/554.roms_r/run/run_base_refrate_gem5_se-m64.0000/roms_r_base.gem5_se-m64']
CWD: /opt/spec2017/benchspec/CPU/554.roms_r/run/run_base_refrate_gem5_se-m64.0000/
Process stdout file: /home/user/PrIDE/performance/gem5/stats/pride_multiprogram_16GBmem_250Mn.SPEC2017.C4/RFM5.BR2.4C/mix20/mix20.out_3
Process stderr file: /home/user/PrIDE/performance/gem5/stats/pride_multiprogram_16GBmem_250Mn.SPEC2017.C4/RFM5.BR2.4C/mix20/mix20.err_3
Workload-0: 
['/opt/spec2017/benchspec/CPU/531.deepsjeng_r/run/run_base_refrate_gem5_se-m64.0000/deepsjeng_r_base.gem5_se-m64', '/opt/spec2017/benchspec/CPU/531.deepsjeng_r/run/run_base_refrate_gem5_se-m64.0000/ref.txt']
Workload-1: 
['/opt/spec2017/benchspec/CPU/505.mcf_r/run/run_base_refrate_gem5_se-m64.0000/mcf_r_base.gem5_se-m64', '/opt/spec2017/benchspec/CPU/505.mcf_r/run/run_base_refrate_gem5_se-m64.0000/inp.in']
Workload-2: 
['/opt/spec2017/benchspec/CPU/508.namd_r/run/run_base_refrate_gem5_se-m64.0000/namd_r_base.gem5_se-m64', '--input', '/opt/spec2017/benchspec/CPU/508.namd_r/run/run_base_refrate_gem5_se-m64.0000/apoa1.input', '--output', '/opt/spec2017/benchspec/CPU/508.namd_r/run/run_base_refrate_gem5_se-m64.0000/apoa1.ref.output', '--iterations', '65']
Workload-3: 
['/opt/spec2017/benchspec/CPU/554.roms_r/run/run_base_refrate_gem5_se-m64.0000/roms_r_base.gem5_se-m64']
defense_enable:  True  detector:  MG  mitigation:  RFM  threshold:  800
mg_entries:  1700
rfm_maxacts_per_trefi:  79 rfm_per_trefi:  5 rfm_blast_radius:  2
Switch at curTick count:10000
warn: membus.master is deprecated. `master` is now called `mem_side_ports`
warn: No dot file generated. Please install pydot to generate the dot file and pdf.
info: Entering event queue @ 13945158484398.  Starting simulation...
warn: PowerState: Already in the requested power state, request ignored
Switched CPUS @ tick 13945158494398
switching cpus
**** REAL SIMULATION ****
info: Entering event queue @ 13945158494398.  Starting simulation...
13948491817731: Event_285: system.switch_cpus3 progress event, total committed:14049975, progress insts committed: 14049975, IPC: 01.40359
13948491817731: Event_284: system.switch_cpus2 progress event, total committed:32738175, progress insts committed: 32738175, IPC: 03.27054
13948491817731: Event_283: system.switch_cpus1 progress event, total committed:11255497, progress insts committed: 11255497, IPC: 01.12442
13948491817731: Event_282: system.switch_cpus0 progress event, total committed:21511839, progress insts committed: 21511839, IPC: 02.14903
13951825151064: Event_282: system.switch_cpus0 progress event, total committed:44023513, progress insts committed: 22511674, IPC: 02.24892
13951825151064: Event_283: system.switch_cpus1 progress event, total committed:22903625, progress insts committed: 11648128, IPC: 01.16365
13951825151064: Event_284: system.switch_cpus2 progress event, total committed:65254579, progress insts committed: 32516404, IPC: 03.24839
13951825151064: Event_285: system.switch_cpus3 progress event, total committed:30278775, progress insts committed: 16228800, IPC: 01.62126
13955158484397: Event_285: system.switch_cpus3 progress event, total committed:41356499, progress insts committed: 11077724, IPC: 01.10666
13955158484397: Event_284: system.switch_cpus2 progress event, total committed:97123509, progress insts committed: 31868930, IPC: 03.18371
13955158484397: Event_283: system.switch_cpus1 progress event, total committed:34477336, progress insts committed: 11573711, IPC: 01.15621
13955158484397: Event_282: system.switch_cpus0 progress event, total committed:65872683, progress insts committed: 21849170, IPC: 02.18273
13958491817730: Event_282: system.switch_cpus0 progress event, total committed:88249083, progress insts committed: 22376400, IPC: 002.2354
13958491817730: Event_283: system.switch_cpus1 progress event, total committed:46002601, progress insts committed: 11525265, IPC: 01.15137
13958491817730: Event_284: system.switch_cpus2 progress event, total committed:129273647, progress insts committed: 32150138, IPC: 003.2118
13958491817730: Event_285: system.switch_cpus3 progress event, total committed:49335643, progress insts committed: 7979144, IPC: 0.797116
13961825151063: Event_285: system.switch_cpus3 progress event, total committed:57720819, progress insts committed: 8385176, IPC: 0.837679
13961825151063: Event_284: system.switch_cpus2 progress event, total committed:162425384, progress insts committed: 33151737, IPC: 03.31186
13961825151063: Event_283: system.switch_cpus1 progress event, total committed:57763172, progress insts committed: 11760571, IPC: 01.17488
13961825151063: Event_282: system.switch_cpus0 progress event, total committed:110677223, progress insts committed: 22428140, IPC: 02.24057
13965158484396: Event_282: system.switch_cpus0 progress event, total committed:133090874, progress insts committed: 22413651, IPC: 02.23912
13965158484396: Event_283: system.switch_cpus1 progress event, total committed:69765594, progress insts committed: 12002422, IPC: 01.19904
13965158484396: Event_284: system.switch_cpus2 progress event, total committed:194912240, progress insts committed: 32486856, IPC: 03.24544
13965158484396: Event_285: system.switch_cpus3 progress event, total committed:65503911, progress insts committed: 7783092, IPC: 0.777531
13968491817729: Event_285: system.switch_cpus3 progress event, total committed:70247005, progress insts committed: 4743094, IPC: 0.473835
13968491817729: Event_284: system.switch_cpus2 progress event, total committed:226385427, progress insts committed: 31473187, IPC: 03.14417
13968491817729: Event_283: system.switch_cpus1 progress event, total committed:80765430, progress insts committed: 10999836, IPC: 01.09888
13968491817729: Event_282: system.switch_cpus0 progress event, total committed:154385157, progress insts committed: 21294283, IPC: 002.1273
13971825151062: Event_282: system.switch_cpus0 progress event, total committed:175463281, progress insts committed: 21078124, IPC: 002.1057
13971825151062: Event_283: system.switch_cpus1 progress event, total committed:92236118, progress insts committed: 11470688, IPC: 01.14592
13971825151062: Event_284: system.switch_cpus2 progress event, total committed:257324031, progress insts committed: 30938604, IPC: 03.09077
13971825151062: Event_285: system.switch_cpus3 progress event, total committed:74864288, progress insts committed: 4617283, IPC: 0.461267
13975158484395: Event_285: system.switch_cpus3 progress event, total committed:79582797, progress insts committed: 4718509, IPC: 0.471379
13975158484395: Event_284: system.switch_cpus2 progress event, total committed:288378346, progress insts committed: 31054315, IPC: 03.10233
13975158484395: Event_283: system.switch_cpus1 progress event, total committed:103115234, progress insts committed: 10879116, IPC: 01.08682
13975158484395: Event_282: system.switch_cpus0 progress event, total committed:196623687, progress insts committed: 21160406, IPC: 02.11392
Exiting @ tick 13976038108863 because a thread reached the max instruction count
