Command line:
./runscript_pride.sh mix4 RFM2.BR2.4C 4 2017 --rh_defense --rh_mitigation=RFM --rh_rfm_per_trefi=2 --rh_rfm_blast_radius=2 --rh_rfm_maxacts_per_trefi=79
Global frequency set at 1000000000000 ticks per second
RFM details - rfm_act_threshold: 39, blast_radius: 2, delay_per_rfm: 175000 ps. sample_rate: 0.025000
RH Defense config: RFM, Bus Delay: 0, rfms_per_trefi: 2, rfm_act_threshold: 39, blast_radius: 2,rfm_delay_per_act: 45000 ps.
DRAM config: RowsPerBank: 65536, BanksPerRank: 32, RanksPerChannel: 1
warn: Sockets disabled, not accepting gdb connections
warn: CoherentXBar system.cpu0.mmucache.mmubus has no snooping ports attached!
warn: CoherentXBar system.cpu1.mmucache.mmubus has no snooping ports attached!
warn: CoherentXBar system.cpu2.mmucache.mmubus has no snooping ports attached!
warn: CoherentXBar system.cpu3.mmucache.mmubus has no snooping ports attached!
warn: Checkpoints for file descriptors currently do not work.
warn: Checkpoints for file descriptors currently do not work.
warn: Checkpoints for file descriptors currently do not work.
warn: Checkpoints for file descriptors currently do not work.
gem5 Simulator System.  http://gem5.org
gem5 is copyrighted software; use the --copyright option for details.

gem5 version 20.1.0.5
gem5 compiled Jul 12 2024 12:42:38
gem5 started Jul 22 2024 15:24:35
gem5 executing on a07dda8b130c, pid 88530
command line: /home/user/PrIDE/performance/gem5/build/X86/gem5.opt --outdir=/home/user/PrIDE/performance/gem5/stats/pride_multiprogram_16GBmem_250Mn.SPEC2017.C4/RFM2.BR2.4C/mix4 /home/user/PrIDE/performance/gem5/configs/example/se_rq_spec_config_multicore.py --redirects /lib64=/home/utils/gcc-6.2.0/lib64 --benchmark=mix4 --benchmark_stdout=/home/user/PrIDE/performance/gem5/stats/pride_multiprogram_16GBmem_250Mn.SPEC2017.C4/RFM2.BR2.4C/mix4/mix4.out --benchmark_stderr=/home/user/PrIDE/performance/gem5/stats/pride_multiprogram_16GBmem_250Mn.SPEC2017.C4/RFM2.BR2.4C/mix4/mix4.err --spec-version=2017 --rh_defense --rh_mitigation=RFM --rh_rfm_per_trefi=2 --rh_rfm_blast_radius=2 --rh_rfm_maxacts_per_trefi=79 --num-cpus=4 --mem-size=16GB --mem-type=DDR5_2400_32x4 --mem-ranks=1 --checkpoint-dir=/home/user/PrIDE/performance/gem5/cpts/multiprogram_16GBmem_25Bn.SPEC2017.C4/mix4-1-ref-x86 --checkpoint-restore=25000000000 --at-instruction --cpu-type DerivO3CPU --caches --l2cache --l1d_size=32kB --l1i_size=32kB --l2_size=256kB --l1d_assoc=8 --l1i_assoc=8 --l2_assoc=16 --maxinsts=250000000 --prog-interval=300Hz

info: Standard input is not a terminal, disabling listeners.
Benchmark- 0   namd
Selected benchmark
--> namd
CMD: ['/opt/spec2017/benchspec/CPU/508.namd_r/run/run_base_refrate_gem5_se-m64.0000/namd_r_base.gem5_se-m64', '--input', '/opt/spec2017/benchspec/CPU/508.namd_r/run/run_base_refrate_gem5_se-m64.0000/apoa1.input', '--output', '/opt/spec2017/benchspec/CPU/508.namd_r/run/run_base_refrate_gem5_se-m64.0000/apoa1.ref.output', '--iterations', '65']
CWD: /opt/spec2017/benchspec/CPU/508.namd_r/run/run_base_refrate_gem5_se-m64.0000/
Process stdout file: /home/user/PrIDE/performance/gem5/stats/pride_multiprogram_16GBmem_250Mn.SPEC2017.C4/RFM2.BR2.4C/mix4/mix4.out_0
Process stderr file: /home/user/PrIDE/performance/gem5/stats/pride_multiprogram_16GBmem_250Mn.SPEC2017.C4/RFM2.BR2.4C/mix4/mix4.err_0
Benchmark- 1   deepsjeng
Selected benchmark
--> deepsjeng
CMD: ['/opt/spec2017/benchspec/CPU/531.deepsjeng_r/run/run_base_refrate_gem5_se-m64.0000/deepsjeng_r_base.gem5_se-m64', '/opt/spec2017/benchspec/CPU/531.deepsjeng_r/run/run_base_refrate_gem5_se-m64.0000/ref.txt']
CWD: /opt/spec2017/benchspec/CPU/531.deepsjeng_r/run/run_base_refrate_gem5_se-m64.0000/
Process stdout file: /home/user/PrIDE/performance/gem5/stats/pride_multiprogram_16GBmem_250Mn.SPEC2017.C4/RFM2.BR2.4C/mix4/mix4.out_1
Process stderr file: /home/user/PrIDE/performance/gem5/stats/pride_multiprogram_16GBmem_250Mn.SPEC2017.C4/RFM2.BR2.4C/mix4/mix4.err_1
Benchmark- 2   cactuBSSN
Selected benchmark
--> cactuBSSN
CMD: ['/opt/spec2017/benchspec/CPU/507.cactuBSSN_r/run/run_base_refrate_gem5_se-m64.0000/cactusBSSN_r_base.gem5_se-m64', '/opt/spec2017/benchspec/CPU/507.cactuBSSN_r/run/run_base_refrate_gem5_se-m64.0000/spec_ref.par']
CWD: /opt/spec2017/benchspec/CPU/507.cactuBSSN_r/run/run_base_refrate_gem5_se-m64.0000/
Process stdout file: /home/user/PrIDE/performance/gem5/stats/pride_multiprogram_16GBmem_250Mn.SPEC2017.C4/RFM2.BR2.4C/mix4/mix4.out_2
Process stderr file: /home/user/PrIDE/performance/gem5/stats/pride_multiprogram_16GBmem_250Mn.SPEC2017.C4/RFM2.BR2.4C/mix4/mix4.err_2
Benchmark- 3   leela
Selected benchmark
--> leela
CMD: ['/opt/spec2017/benchspec/CPU/541.leela_r/run/run_base_refrate_gem5_se-m64.0000/leela_r_base.gem5_se-m64', '/opt/spec2017/benchspec/CPU/541.leela_r/run/run_base_refrate_gem5_se-m64.0000/ref.sgf']
CWD: /opt/spec2017/benchspec/CPU/541.leela_r/run/run_base_refrate_gem5_se-m64.0000/
Process stdout file: /home/user/PrIDE/performance/gem5/stats/pride_multiprogram_16GBmem_250Mn.SPEC2017.C4/RFM2.BR2.4C/mix4/mix4.out_3
Process stderr file: /home/user/PrIDE/performance/gem5/stats/pride_multiprogram_16GBmem_250Mn.SPEC2017.C4/RFM2.BR2.4C/mix4/mix4.err_3
Workload-0: 
['/opt/spec2017/benchspec/CPU/508.namd_r/run/run_base_refrate_gem5_se-m64.0000/namd_r_base.gem5_se-m64', '--input', '/opt/spec2017/benchspec/CPU/508.namd_r/run/run_base_refrate_gem5_se-m64.0000/apoa1.input', '--output', '/opt/spec2017/benchspec/CPU/508.namd_r/run/run_base_refrate_gem5_se-m64.0000/apoa1.ref.output', '--iterations', '65']
Workload-1: 
['/opt/spec2017/benchspec/CPU/531.deepsjeng_r/run/run_base_refrate_gem5_se-m64.0000/deepsjeng_r_base.gem5_se-m64', '/opt/spec2017/benchspec/CPU/531.deepsjeng_r/run/run_base_refrate_gem5_se-m64.0000/ref.txt']
Workload-2: 
['/opt/spec2017/benchspec/CPU/507.cactuBSSN_r/run/run_base_refrate_gem5_se-m64.0000/cactusBSSN_r_base.gem5_se-m64', '/opt/spec2017/benchspec/CPU/507.cactuBSSN_r/run/run_base_refrate_gem5_se-m64.0000/spec_ref.par']
Workload-3: 
['/opt/spec2017/benchspec/CPU/541.leela_r/run/run_base_refrate_gem5_se-m64.0000/leela_r_base.gem5_se-m64', '/opt/spec2017/benchspec/CPU/541.leela_r/run/run_base_refrate_gem5_se-m64.0000/ref.sgf']
defense_enable:  True  detector:  MG  mitigation:  RFM  threshold:  800
mg_entries:  1700
rfm_maxacts_per_trefi:  79 rfm_per_trefi:  2 rfm_blast_radius:  2
Switch at curTick count:10000
warn: membus.master is deprecated. `master` is now called `mem_side_ports`
warn: No dot file generated. Please install pydot to generate the dot file and pdf.
info: Entering event queue @ 13945158484731.  Starting simulation...
warn: PowerState: Already in the requested power state, request ignored
Switched CPUS @ tick 13945158494731
switching cpus
**** REAL SIMULATION ****
info: Entering event queue @ 13945158494731.  Starting simulation...
warn: MOVNTDQ: Ignoring non-temporal hint, modeling as cacheable!
13948491818064: Event_285: system.switch_cpus3 progress event, total committed:18845707, progress insts committed: 18845707, IPC: 01.88269
13948491818064: Event_284: system.switch_cpus2 progress event, total committed:7311008, progress insts committed: 7311008, IPC: 00.73037
13948491818064: Event_283: system.switch_cpus1 progress event, total committed:21685078, progress insts committed: 21685078, IPC: 02.16634
13948491818064: Event_282: system.switch_cpus0 progress event, total committed:33742142, progress insts committed: 33742142, IPC: 03.37084
13951825151397: Event_282: system.switch_cpus0 progress event, total committed:68450901, progress insts committed: 34708759, IPC: 03.46741
13951825151397: Event_283: system.switch_cpus1 progress event, total committed:44571006, progress insts committed: 22885928, IPC: 002.2863
13951825151397: Event_284: system.switch_cpus2 progress event, total committed:14789626, progress insts committed: 7478618, IPC: 0.747114
13951825151397: Event_285: system.switch_cpus3 progress event, total committed:38760391, progress insts committed: 19914684, IPC: 01.98948
13955158484730: Event_285: system.switch_cpus3 progress event, total committed:58732374, progress insts committed: 19971983, IPC: 001.9952
13955158484730: Event_284: system.switch_cpus2 progress event, total committed:22256552, progress insts committed: 7466926, IPC: 0.745946
13955158484730: Event_283: system.switch_cpus1 progress event, total committed:66950354, progress insts committed: 22379348, IPC: 002.2357
13955158484730: Event_282: system.switch_cpus0 progress event, total committed:102790649, progress insts committed: 34339748, IPC: 03.43054
13958491818063: Event_282: system.switch_cpus0 progress event, total committed:137866128, progress insts committed: 35075479, IPC: 03.50404
13958491818063: Event_283: system.switch_cpus1 progress event, total committed:89660487, progress insts committed: 22710133, IPC: 02.26874
13958491818063: Event_284: system.switch_cpus2 progress event, total committed:29678911, progress insts committed: 7422359, IPC: 0.741494
13958491818063: Event_285: system.switch_cpus3 progress event, total committed:78686964, progress insts committed: 19954590, IPC: 01.99346
13961825151396: Event_285: system.switch_cpus3 progress event, total committed:98677672, progress insts committed: 19990708, IPC: 01.99707
13961825151396: Event_284: system.switch_cpus2 progress event, total committed:37117857, progress insts committed: 7438946, IPC: 0.743151
13961825151396: Event_283: system.switch_cpus1 progress event, total committed:112510531, progress insts committed: 22850044, IPC: 02.28272
13961825151396: Event_282: system.switch_cpus0 progress event, total committed:172967135, progress insts committed: 35101007, IPC: 03.50659
13965158484729: Event_282: system.switch_cpus0 progress event, total committed:207383547, progress insts committed: 34416412, IPC: 003.4382
13965158484729: Event_283: system.switch_cpus1 progress event, total committed:134917077, progress insts committed: 22406546, IPC: 02.23841
13965158484729: Event_284: system.switch_cpus2 progress event, total committed:44567691, progress insts committed: 7449834, IPC: 0.744238
13965158484729: Event_285: system.switch_cpus3 progress event, total committed:118706865, progress insts committed: 20029193, IPC: 02.00092
13968491818062: Event_285: system.switch_cpus3 progress event, total committed:138747068, progress insts committed: 20040203, IPC: 02.00202
13968491818062: Event_284: system.switch_cpus2 progress event, total committed:52040017, progress insts committed: 7472326, IPC: 0.746485
13968491818062: Event_283: system.switch_cpus1 progress event, total committed:156877793, progress insts committed: 21960716, IPC: 02.19388
13968491818062: Event_282: system.switch_cpus0 progress event, total committed:242213125, progress insts committed: 34829578, IPC: 03.47947
13971825151395: Event_282: system.switch_cpus0 progress event, total committed:276674157, progress insts committed: 34461032, IPC: 03.44266
13971825151395: Event_283: system.switch_cpus1 progress event, total committed:178720664, progress insts committed: 21842871, IPC: 002.1821
13971825151395: Event_284: system.switch_cpus2 progress event, total committed:59434693, progress insts committed: 7394676, IPC: 0.738728
13971825151395: Event_285: system.switch_cpus3 progress event, total committed:158809229, progress insts committed: 20062161, IPC: 02.00421
Exiting @ tick 13973759565687 because a thread reached the max instruction count
