
---------- Begin Simulation Statistics ----------
final_tick                               16254709590762                       # Number of ticks from beginning of simulation (restored from checkpoints and never reset)
host_inst_rate                                  68006                       # Simulator instruction rate (inst/s)
host_mem_usage                               17610664                       # Number of bytes of host memory used
host_op_rate                                    95142                       # Simulator op (including micro ops) rate (op/s)
host_seconds                                 14704.40                       # Real time elapsed on the host
host_tick_rate                               26882883                       # Simulator tick rate (ticks/s)
sim_freq                                 1000000000000                       # Frequency of simulated ticks
sim_insts                                   999987510                       # Number of instructions simulated
sim_ops                                    1399009930                       # Number of ops (including micro ops) simulated
sim_seconds                                  0.395297                       # Number of seconds simulated
sim_ticks                                395296771536                       # Number of ticks simulated
system.cpu0.committedInsts                         24                       # Number of instructions committed
system.cpu0.committedOps                           24                       # Number of ops (including micro ops) committed
system.cpu0.idle_fraction                           0                       # Percentage of idle cycles
system.cpu0.l2bus.snoop_filter.hit_multi_requests           21                       # Number of requests hitting in the snoop filter with multiple (>1) holders of the requested data.
system.cpu0.l2bus.snoop_filter.hit_multi_snoops            1                       # Number of snoops hitting in the snoop filter with multiple (>1) holders of the requested data.
system.cpu0.l2bus.snoop_filter.hit_single_requests     25084642                       # Number of requests hitting in the snoop filter with a single holder of the requested data.
system.cpu0.l2bus.snoop_filter.hit_single_snoops        97865                       # Number of snoops hitting in the snoop filter with a single holder of the requested data.
system.cpu0.l2bus.snoop_filter.tot_requests     50155508                       # Total number of requests made to the snoop filter.
system.cpu0.l2bus.snoop_filter.tot_snoops        97866                       # Total number of snoops made to the snoop filter.
system.cpu0.mmucache.mmubus.snoop_filter.hit_multi_requests            0                       # Number of requests hitting in the snoop filter with multiple (>1) holders of the requested data.
system.cpu0.mmucache.mmubus.snoop_filter.hit_multi_snoops            0                       # Number of snoops hitting in the snoop filter with multiple (>1) holders of the requested data.
system.cpu0.mmucache.mmubus.snoop_filter.hit_single_requests            0                       # Number of requests hitting in the snoop filter with a single holder of the requested data.
system.cpu0.mmucache.mmubus.snoop_filter.hit_single_snoops            0                       # Number of snoops hitting in the snoop filter with a single holder of the requested data.
system.cpu0.mmucache.mmubus.snoop_filter.tot_requests            0                       # Total number of requests made to the snoop filter.
system.cpu0.mmucache.mmubus.snoop_filter.tot_snoops            0                       # Total number of snoops made to the snoop filter.
system.cpu0.not_idle_fraction                       1                       # Percentage of non-idle cycles
system.cpu0.numCycles                              30                       # number of cpu cycles simulated
system.cpu0.numWorkItemsCompleted                   0                       # number of work items this cpu completed
system.cpu0.numWorkItemsStarted                     0                       # number of work items this cpu started
system.cpu0.num_busy_cycles                        30                       # Number of busy cycles
system.cpu0.num_conditional_control_insts            0                       # number of instructions that are conditional controls
system.cpu0.num_fp_alu_accesses                    24                       # Number of float alu accesses
system.cpu0.num_fp_insts                           24                       # number of float instructions
system.cpu0.num_fp_register_reads                  44                       # number of times the floating registers were read
system.cpu0.num_fp_register_writes                 22                       # number of times the floating registers were written
system.cpu0.num_func_calls                          0                       # number of times a function call or return occured
system.cpu0.num_idle_cycles                         0                       # Number of idle cycles
system.cpu0.num_int_alu_accesses                   10                       # Number of integer alu accesses
system.cpu0.num_int_insts                          10                       # number of integer instructions
system.cpu0.num_int_register_reads                 30                       # number of times the integer registers were read
system.cpu0.num_int_register_writes                 0                       # number of times the integer registers were written
system.cpu0.num_load_insts                          8                       # Number of load instructions
system.cpu0.num_mem_refs                           10                       # number of memory refs
system.cpu0.num_store_insts                         2                       # Number of store instructions
system.cpu0.num_vec_alu_accesses                    0                       # Number of vector alu accesses
system.cpu0.num_vec_insts                           0                       # number of vector instructions
system.cpu0.num_vec_register_reads                  0                       # number of times the vector registers were read
system.cpu0.num_vec_register_writes                 0                       # number of times the vector registers were written
system.cpu0.op_class::No_OpClass                    0      0.00%      0.00% # Class of executed instruction
system.cpu0.op_class::IntAlu                        0      0.00%      0.00% # Class of executed instruction
system.cpu0.op_class::IntMult                       0      0.00%      0.00% # Class of executed instruction
system.cpu0.op_class::IntDiv                        0      0.00%      0.00% # Class of executed instruction
system.cpu0.op_class::FloatAdd                      0      0.00%      0.00% # Class of executed instruction
system.cpu0.op_class::FloatCmp                      0      0.00%      0.00% # Class of executed instruction
system.cpu0.op_class::FloatCvt                      0      0.00%      0.00% # Class of executed instruction
system.cpu0.op_class::FloatMult                     0      0.00%      0.00% # Class of executed instruction
system.cpu0.op_class::FloatMultAcc                  0      0.00%      0.00% # Class of executed instruction
system.cpu0.op_class::FloatDiv                      0      0.00%      0.00% # Class of executed instruction
system.cpu0.op_class::FloatMisc                     0      0.00%      0.00% # Class of executed instruction
system.cpu0.op_class::FloatSqrt                     0      0.00%      0.00% # Class of executed instruction
system.cpu0.op_class::SimdAdd                       0      0.00%      0.00% # Class of executed instruction
system.cpu0.op_class::SimdAddAcc                    0      0.00%      0.00% # Class of executed instruction
system.cpu0.op_class::SimdAlu                       0      0.00%      0.00% # Class of executed instruction
system.cpu0.op_class::SimdCmp                       0      0.00%      0.00% # Class of executed instruction
system.cpu0.op_class::SimdCvt                       0      0.00%      0.00% # Class of executed instruction
system.cpu0.op_class::SimdMisc                      0      0.00%      0.00% # Class of executed instruction
system.cpu0.op_class::SimdMult                      0      0.00%      0.00% # Class of executed instruction
system.cpu0.op_class::SimdMultAcc                   0      0.00%      0.00% # Class of executed instruction
system.cpu0.op_class::SimdShift                     0      0.00%      0.00% # Class of executed instruction
system.cpu0.op_class::SimdShiftAcc                  0      0.00%      0.00% # Class of executed instruction
system.cpu0.op_class::SimdDiv                       0      0.00%      0.00% # Class of executed instruction
system.cpu0.op_class::SimdSqrt                      0      0.00%      0.00% # Class of executed instruction
system.cpu0.op_class::SimdFloatAdd                  6     25.00%     25.00% # Class of executed instruction
system.cpu0.op_class::SimdFloatAlu                  0      0.00%     25.00% # Class of executed instruction
system.cpu0.op_class::SimdFloatCmp                  0      0.00%     25.00% # Class of executed instruction
system.cpu0.op_class::SimdFloatCvt                  0      0.00%     25.00% # Class of executed instruction
system.cpu0.op_class::SimdFloatDiv                  0      0.00%     25.00% # Class of executed instruction
system.cpu0.op_class::SimdFloatMisc                 0      0.00%     25.00% # Class of executed instruction
system.cpu0.op_class::SimdFloatMult                 8     33.33%     58.33% # Class of executed instruction
system.cpu0.op_class::SimdFloatMultAcc              0      0.00%     58.33% # Class of executed instruction
system.cpu0.op_class::SimdFloatSqrt                 0      0.00%     58.33% # Class of executed instruction
system.cpu0.op_class::SimdReduceAdd                 0      0.00%     58.33% # Class of executed instruction
system.cpu0.op_class::SimdReduceAlu                 0      0.00%     58.33% # Class of executed instruction
system.cpu0.op_class::SimdReduceCmp                 0      0.00%     58.33% # Class of executed instruction
system.cpu0.op_class::SimdFloatReduceAdd            0      0.00%     58.33% # Class of executed instruction
system.cpu0.op_class::SimdFloatReduceCmp            0      0.00%     58.33% # Class of executed instruction
system.cpu0.op_class::SimdAes                       0      0.00%     58.33% # Class of executed instruction
system.cpu0.op_class::SimdAesMix                    0      0.00%     58.33% # Class of executed instruction
system.cpu0.op_class::SimdSha1Hash                  0      0.00%     58.33% # Class of executed instruction
system.cpu0.op_class::SimdSha1Hash2                 0      0.00%     58.33% # Class of executed instruction
system.cpu0.op_class::SimdSha256Hash                0      0.00%     58.33% # Class of executed instruction
system.cpu0.op_class::SimdSha256Hash2               0      0.00%     58.33% # Class of executed instruction
system.cpu0.op_class::SimdShaSigma2                 0      0.00%     58.33% # Class of executed instruction
system.cpu0.op_class::SimdShaSigma3                 0      0.00%     58.33% # Class of executed instruction
system.cpu0.op_class::SimdPredAlu                   0      0.00%     58.33% # Class of executed instruction
system.cpu0.op_class::MemRead                       0      0.00%     58.33% # Class of executed instruction
system.cpu0.op_class::MemWrite                      0      0.00%     58.33% # Class of executed instruction
system.cpu0.op_class::FloatMemRead                  8     33.33%     91.67% # Class of executed instruction
system.cpu0.op_class::FloatMemWrite                 2      8.33%    100.00% # Class of executed instruction
system.cpu0.op_class::IprAccess                     0      0.00%    100.00% # Class of executed instruction
system.cpu0.op_class::InstPrefetch                  0      0.00%    100.00% # Class of executed instruction
system.cpu0.op_class::total                        24                       # Class of executed instruction
system.cpu0.workload.numSyscalls                    0                       # Number of system calls
system.cpu1.committedInsts                         24                       # Number of instructions committed
system.cpu1.committedOps                           24                       # Number of ops (including micro ops) committed
system.cpu1.idle_fraction                           0                       # Percentage of idle cycles
system.cpu1.l2bus.snoop_filter.hit_multi_requests           17                       # Number of requests hitting in the snoop filter with multiple (>1) holders of the requested data.
system.cpu1.l2bus.snoop_filter.hit_multi_snoops            0                       # Number of snoops hitting in the snoop filter with multiple (>1) holders of the requested data.
system.cpu1.l2bus.snoop_filter.hit_single_requests     25080707                       # Number of requests hitting in the snoop filter with a single holder of the requested data.
system.cpu1.l2bus.snoop_filter.hit_single_snoops        99103                       # Number of snoops hitting in the snoop filter with a single holder of the requested data.
system.cpu1.l2bus.snoop_filter.tot_requests     50146481                       # Total number of requests made to the snoop filter.
system.cpu1.l2bus.snoop_filter.tot_snoops        99103                       # Total number of snoops made to the snoop filter.
system.cpu1.mmucache.mmubus.snoop_filter.hit_multi_requests            0                       # Number of requests hitting in the snoop filter with multiple (>1) holders of the requested data.
system.cpu1.mmucache.mmubus.snoop_filter.hit_multi_snoops            0                       # Number of snoops hitting in the snoop filter with multiple (>1) holders of the requested data.
system.cpu1.mmucache.mmubus.snoop_filter.hit_single_requests            0                       # Number of requests hitting in the snoop filter with a single holder of the requested data.
system.cpu1.mmucache.mmubus.snoop_filter.hit_single_snoops            0                       # Number of snoops hitting in the snoop filter with a single holder of the requested data.
system.cpu1.mmucache.mmubus.snoop_filter.tot_requests            0                       # Total number of requests made to the snoop filter.
system.cpu1.mmucache.mmubus.snoop_filter.tot_snoops            0                       # Total number of snoops made to the snoop filter.
system.cpu1.not_idle_fraction                       1                       # Percentage of non-idle cycles
system.cpu1.numCycles                              30                       # number of cpu cycles simulated
system.cpu1.numWorkItemsCompleted                   0                       # number of work items this cpu completed
system.cpu1.numWorkItemsStarted                     0                       # number of work items this cpu started
system.cpu1.num_busy_cycles                        30                       # Number of busy cycles
system.cpu1.num_conditional_control_insts            0                       # number of instructions that are conditional controls
system.cpu1.num_fp_alu_accesses                    24                       # Number of float alu accesses
system.cpu1.num_fp_insts                           24                       # number of float instructions
system.cpu1.num_fp_register_reads                  44                       # number of times the floating registers were read
system.cpu1.num_fp_register_writes                 22                       # number of times the floating registers were written
system.cpu1.num_func_calls                          0                       # number of times a function call or return occured
system.cpu1.num_idle_cycles                         0                       # Number of idle cycles
system.cpu1.num_int_alu_accesses                   10                       # Number of integer alu accesses
system.cpu1.num_int_insts                          10                       # number of integer instructions
system.cpu1.num_int_register_reads                 30                       # number of times the integer registers were read
system.cpu1.num_int_register_writes                 0                       # number of times the integer registers were written
system.cpu1.num_load_insts                          8                       # Number of load instructions
system.cpu1.num_mem_refs                           10                       # number of memory refs
system.cpu1.num_store_insts                         2                       # Number of store instructions
system.cpu1.num_vec_alu_accesses                    0                       # Number of vector alu accesses
system.cpu1.num_vec_insts                           0                       # number of vector instructions
system.cpu1.num_vec_register_reads                  0                       # number of times the vector registers were read
system.cpu1.num_vec_register_writes                 0                       # number of times the vector registers were written
system.cpu1.op_class::No_OpClass                    0      0.00%      0.00% # Class of executed instruction
system.cpu1.op_class::IntAlu                        0      0.00%      0.00% # Class of executed instruction
system.cpu1.op_class::IntMult                       0      0.00%      0.00% # Class of executed instruction
system.cpu1.op_class::IntDiv                        0      0.00%      0.00% # Class of executed instruction
system.cpu1.op_class::FloatAdd                      0      0.00%      0.00% # Class of executed instruction
system.cpu1.op_class::FloatCmp                      0      0.00%      0.00% # Class of executed instruction
system.cpu1.op_class::FloatCvt                      0      0.00%      0.00% # Class of executed instruction
system.cpu1.op_class::FloatMult                     0      0.00%      0.00% # Class of executed instruction
system.cpu1.op_class::FloatMultAcc                  0      0.00%      0.00% # Class of executed instruction
system.cpu1.op_class::FloatDiv                      0      0.00%      0.00% # Class of executed instruction
system.cpu1.op_class::FloatMisc                     0      0.00%      0.00% # Class of executed instruction
system.cpu1.op_class::FloatSqrt                     0      0.00%      0.00% # Class of executed instruction
system.cpu1.op_class::SimdAdd                       0      0.00%      0.00% # Class of executed instruction
system.cpu1.op_class::SimdAddAcc                    0      0.00%      0.00% # Class of executed instruction
system.cpu1.op_class::SimdAlu                       0      0.00%      0.00% # Class of executed instruction
system.cpu1.op_class::SimdCmp                       0      0.00%      0.00% # Class of executed instruction
system.cpu1.op_class::SimdCvt                       0      0.00%      0.00% # Class of executed instruction
system.cpu1.op_class::SimdMisc                      0      0.00%      0.00% # Class of executed instruction
system.cpu1.op_class::SimdMult                      0      0.00%      0.00% # Class of executed instruction
system.cpu1.op_class::SimdMultAcc                   0      0.00%      0.00% # Class of executed instruction
system.cpu1.op_class::SimdShift                     0      0.00%      0.00% # Class of executed instruction
system.cpu1.op_class::SimdShiftAcc                  0      0.00%      0.00% # Class of executed instruction
system.cpu1.op_class::SimdDiv                       0      0.00%      0.00% # Class of executed instruction
system.cpu1.op_class::SimdSqrt                      0      0.00%      0.00% # Class of executed instruction
system.cpu1.op_class::SimdFloatAdd                  6     25.00%     25.00% # Class of executed instruction
system.cpu1.op_class::SimdFloatAlu                  0      0.00%     25.00% # Class of executed instruction
system.cpu1.op_class::SimdFloatCmp                  0      0.00%     25.00% # Class of executed instruction
system.cpu1.op_class::SimdFloatCvt                  0      0.00%     25.00% # Class of executed instruction
system.cpu1.op_class::SimdFloatDiv                  0      0.00%     25.00% # Class of executed instruction
system.cpu1.op_class::SimdFloatMisc                 0      0.00%     25.00% # Class of executed instruction
system.cpu1.op_class::SimdFloatMult                 8     33.33%     58.33% # Class of executed instruction
system.cpu1.op_class::SimdFloatMultAcc              0      0.00%     58.33% # Class of executed instruction
system.cpu1.op_class::SimdFloatSqrt                 0      0.00%     58.33% # Class of executed instruction
system.cpu1.op_class::SimdReduceAdd                 0      0.00%     58.33% # Class of executed instruction
system.cpu1.op_class::SimdReduceAlu                 0      0.00%     58.33% # Class of executed instruction
system.cpu1.op_class::SimdReduceCmp                 0      0.00%     58.33% # Class of executed instruction
system.cpu1.op_class::SimdFloatReduceAdd            0      0.00%     58.33% # Class of executed instruction
system.cpu1.op_class::SimdFloatReduceCmp            0      0.00%     58.33% # Class of executed instruction
system.cpu1.op_class::SimdAes                       0      0.00%     58.33% # Class of executed instruction
system.cpu1.op_class::SimdAesMix                    0      0.00%     58.33% # Class of executed instruction
system.cpu1.op_class::SimdSha1Hash                  0      0.00%     58.33% # Class of executed instruction
system.cpu1.op_class::SimdSha1Hash2                 0      0.00%     58.33% # Class of executed instruction
system.cpu1.op_class::SimdSha256Hash                0      0.00%     58.33% # Class of executed instruction
system.cpu1.op_class::SimdSha256Hash2               0      0.00%     58.33% # Class of executed instruction
system.cpu1.op_class::SimdShaSigma2                 0      0.00%     58.33% # Class of executed instruction
system.cpu1.op_class::SimdShaSigma3                 0      0.00%     58.33% # Class of executed instruction
system.cpu1.op_class::SimdPredAlu                   0      0.00%     58.33% # Class of executed instruction
system.cpu1.op_class::MemRead                       0      0.00%     58.33% # Class of executed instruction
system.cpu1.op_class::MemWrite                      0      0.00%     58.33% # Class of executed instruction
system.cpu1.op_class::FloatMemRead                  8     33.33%     91.67% # Class of executed instruction
system.cpu1.op_class::FloatMemWrite                 2      8.33%    100.00% # Class of executed instruction
system.cpu1.op_class::IprAccess                     0      0.00%    100.00% # Class of executed instruction
system.cpu1.op_class::InstPrefetch                  0      0.00%    100.00% # Class of executed instruction
system.cpu1.op_class::total                        24                       # Class of executed instruction
system.cpu1.workload.numSyscalls                    0                       # Number of system calls
system.cpu2.committedInsts                         24                       # Number of instructions committed
system.cpu2.committedOps                           24                       # Number of ops (including micro ops) committed
system.cpu2.idle_fraction                           0                       # Percentage of idle cycles
system.cpu2.l2bus.snoop_filter.hit_multi_requests           18                       # Number of requests hitting in the snoop filter with multiple (>1) holders of the requested data.
system.cpu2.l2bus.snoop_filter.hit_multi_snoops            0                       # Number of snoops hitting in the snoop filter with multiple (>1) holders of the requested data.
system.cpu2.l2bus.snoop_filter.hit_single_requests     25087400                       # Number of requests hitting in the snoop filter with a single holder of the requested data.
system.cpu2.l2bus.snoop_filter.hit_single_snoops        98766                       # Number of snoops hitting in the snoop filter with a single holder of the requested data.
system.cpu2.l2bus.snoop_filter.tot_requests     50159822                       # Total number of requests made to the snoop filter.
system.cpu2.l2bus.snoop_filter.tot_snoops        98766                       # Total number of snoops made to the snoop filter.
system.cpu2.mmucache.mmubus.snoop_filter.hit_multi_requests            0                       # Number of requests hitting in the snoop filter with multiple (>1) holders of the requested data.
system.cpu2.mmucache.mmubus.snoop_filter.hit_multi_snoops            0                       # Number of snoops hitting in the snoop filter with multiple (>1) holders of the requested data.
system.cpu2.mmucache.mmubus.snoop_filter.hit_single_requests            0                       # Number of requests hitting in the snoop filter with a single holder of the requested data.
system.cpu2.mmucache.mmubus.snoop_filter.hit_single_snoops            0                       # Number of snoops hitting in the snoop filter with a single holder of the requested data.
system.cpu2.mmucache.mmubus.snoop_filter.tot_requests            0                       # Total number of requests made to the snoop filter.
system.cpu2.mmucache.mmubus.snoop_filter.tot_snoops            0                       # Total number of snoops made to the snoop filter.
system.cpu2.not_idle_fraction                       1                       # Percentage of non-idle cycles
system.cpu2.numCycles                              30                       # number of cpu cycles simulated
system.cpu2.numWorkItemsCompleted                   0                       # number of work items this cpu completed
system.cpu2.numWorkItemsStarted                     0                       # number of work items this cpu started
system.cpu2.num_busy_cycles                        30                       # Number of busy cycles
system.cpu2.num_conditional_control_insts            0                       # number of instructions that are conditional controls
system.cpu2.num_fp_alu_accesses                    24                       # Number of float alu accesses
system.cpu2.num_fp_insts                           24                       # number of float instructions
system.cpu2.num_fp_register_reads                  44                       # number of times the floating registers were read
system.cpu2.num_fp_register_writes                 22                       # number of times the floating registers were written
system.cpu2.num_func_calls                          0                       # number of times a function call or return occured
system.cpu2.num_idle_cycles                         0                       # Number of idle cycles
system.cpu2.num_int_alu_accesses                   10                       # Number of integer alu accesses
system.cpu2.num_int_insts                          10                       # number of integer instructions
system.cpu2.num_int_register_reads                 30                       # number of times the integer registers were read
system.cpu2.num_int_register_writes                 0                       # number of times the integer registers were written
system.cpu2.num_load_insts                          8                       # Number of load instructions
system.cpu2.num_mem_refs                           10                       # number of memory refs
system.cpu2.num_store_insts                         2                       # Number of store instructions
system.cpu2.num_vec_alu_accesses                    0                       # Number of vector alu accesses
system.cpu2.num_vec_insts                           0                       # number of vector instructions
system.cpu2.num_vec_register_reads                  0                       # number of times the vector registers were read
system.cpu2.num_vec_register_writes                 0                       # number of times the vector registers were written
system.cpu2.op_class::No_OpClass                    0      0.00%      0.00% # Class of executed instruction
system.cpu2.op_class::IntAlu                        0      0.00%      0.00% # Class of executed instruction
system.cpu2.op_class::IntMult                       0      0.00%      0.00% # Class of executed instruction
system.cpu2.op_class::IntDiv                        0      0.00%      0.00% # Class of executed instruction
system.cpu2.op_class::FloatAdd                      0      0.00%      0.00% # Class of executed instruction
system.cpu2.op_class::FloatCmp                      0      0.00%      0.00% # Class of executed instruction
system.cpu2.op_class::FloatCvt                      0      0.00%      0.00% # Class of executed instruction
system.cpu2.op_class::FloatMult                     0      0.00%      0.00% # Class of executed instruction
system.cpu2.op_class::FloatMultAcc                  0      0.00%      0.00% # Class of executed instruction
system.cpu2.op_class::FloatDiv                      0      0.00%      0.00% # Class of executed instruction
system.cpu2.op_class::FloatMisc                     0      0.00%      0.00% # Class of executed instruction
system.cpu2.op_class::FloatSqrt                     0      0.00%      0.00% # Class of executed instruction
system.cpu2.op_class::SimdAdd                       0      0.00%      0.00% # Class of executed instruction
system.cpu2.op_class::SimdAddAcc                    0      0.00%      0.00% # Class of executed instruction
system.cpu2.op_class::SimdAlu                       0      0.00%      0.00% # Class of executed instruction
system.cpu2.op_class::SimdCmp                       0      0.00%      0.00% # Class of executed instruction
system.cpu2.op_class::SimdCvt                       0      0.00%      0.00% # Class of executed instruction
system.cpu2.op_class::SimdMisc                      0      0.00%      0.00% # Class of executed instruction
system.cpu2.op_class::SimdMult                      0      0.00%      0.00% # Class of executed instruction
system.cpu2.op_class::SimdMultAcc                   0      0.00%      0.00% # Class of executed instruction
system.cpu2.op_class::SimdShift                     0      0.00%      0.00% # Class of executed instruction
system.cpu2.op_class::SimdShiftAcc                  0      0.00%      0.00% # Class of executed instruction
system.cpu2.op_class::SimdDiv                       0      0.00%      0.00% # Class of executed instruction
system.cpu2.op_class::SimdSqrt                      0      0.00%      0.00% # Class of executed instruction
system.cpu2.op_class::SimdFloatAdd                  6     25.00%     25.00% # Class of executed instruction
system.cpu2.op_class::SimdFloatAlu                  0      0.00%     25.00% # Class of executed instruction
system.cpu2.op_class::SimdFloatCmp                  0      0.00%     25.00% # Class of executed instruction
system.cpu2.op_class::SimdFloatCvt                  0      0.00%     25.00% # Class of executed instruction
system.cpu2.op_class::SimdFloatDiv                  0      0.00%     25.00% # Class of executed instruction
system.cpu2.op_class::SimdFloatMisc                 0      0.00%     25.00% # Class of executed instruction
system.cpu2.op_class::SimdFloatMult                 8     33.33%     58.33% # Class of executed instruction
system.cpu2.op_class::SimdFloatMultAcc              0      0.00%     58.33% # Class of executed instruction
system.cpu2.op_class::SimdFloatSqrt                 0      0.00%     58.33% # Class of executed instruction
system.cpu2.op_class::SimdReduceAdd                 0      0.00%     58.33% # Class of executed instruction
system.cpu2.op_class::SimdReduceAlu                 0      0.00%     58.33% # Class of executed instruction
system.cpu2.op_class::SimdReduceCmp                 0      0.00%     58.33% # Class of executed instruction
system.cpu2.op_class::SimdFloatReduceAdd            0      0.00%     58.33% # Class of executed instruction
system.cpu2.op_class::SimdFloatReduceCmp            0      0.00%     58.33% # Class of executed instruction
system.cpu2.op_class::SimdAes                       0      0.00%     58.33% # Class of executed instruction
system.cpu2.op_class::SimdAesMix                    0      0.00%     58.33% # Class of executed instruction
system.cpu2.op_class::SimdSha1Hash                  0      0.00%     58.33% # Class of executed instruction
system.cpu2.op_class::SimdSha1Hash2                 0      0.00%     58.33% # Class of executed instruction
system.cpu2.op_class::SimdSha256Hash                0      0.00%     58.33% # Class of executed instruction
system.cpu2.op_class::SimdSha256Hash2               0      0.00%     58.33% # Class of executed instruction
system.cpu2.op_class::SimdShaSigma2                 0      0.00%     58.33% # Class of executed instruction
system.cpu2.op_class::SimdShaSigma3                 0      0.00%     58.33% # Class of executed instruction
system.cpu2.op_class::SimdPredAlu                   0      0.00%     58.33% # Class of executed instruction
system.cpu2.op_class::MemRead                       0      0.00%     58.33% # Class of executed instruction
system.cpu2.op_class::MemWrite                      0      0.00%     58.33% # Class of executed instruction
system.cpu2.op_class::FloatMemRead                  8     33.33%     91.67% # Class of executed instruction
system.cpu2.op_class::FloatMemWrite                 2      8.33%    100.00% # Class of executed instruction
system.cpu2.op_class::IprAccess                     0      0.00%    100.00% # Class of executed instruction
system.cpu2.op_class::InstPrefetch                  0      0.00%    100.00% # Class of executed instruction
system.cpu2.op_class::total                        24                       # Class of executed instruction
system.cpu2.workload.numSyscalls                    0                       # Number of system calls
system.cpu3.committedInsts                         24                       # Number of instructions committed
system.cpu3.committedOps                           24                       # Number of ops (including micro ops) committed
system.cpu3.idle_fraction                           0                       # Percentage of idle cycles
system.cpu3.l2bus.snoop_filter.hit_multi_requests           19                       # Number of requests hitting in the snoop filter with multiple (>1) holders of the requested data.
system.cpu3.l2bus.snoop_filter.hit_multi_snoops            0                       # Number of snoops hitting in the snoop filter with multiple (>1) holders of the requested data.
system.cpu3.l2bus.snoop_filter.hit_single_requests     25087598                       # Number of requests hitting in the snoop filter with a single holder of the requested data.
system.cpu3.l2bus.snoop_filter.hit_single_snoops        97762                       # Number of snoops hitting in the snoop filter with a single holder of the requested data.
system.cpu3.l2bus.snoop_filter.tot_requests     50161320                       # Total number of requests made to the snoop filter.
system.cpu3.l2bus.snoop_filter.tot_snoops        97762                       # Total number of snoops made to the snoop filter.
system.cpu3.mmucache.mmubus.snoop_filter.hit_multi_requests            0                       # Number of requests hitting in the snoop filter with multiple (>1) holders of the requested data.
system.cpu3.mmucache.mmubus.snoop_filter.hit_multi_snoops            0                       # Number of snoops hitting in the snoop filter with multiple (>1) holders of the requested data.
system.cpu3.mmucache.mmubus.snoop_filter.hit_single_requests            0                       # Number of requests hitting in the snoop filter with a single holder of the requested data.
system.cpu3.mmucache.mmubus.snoop_filter.hit_single_snoops            0                       # Number of snoops hitting in the snoop filter with a single holder of the requested data.
system.cpu3.mmucache.mmubus.snoop_filter.tot_requests            0                       # Total number of requests made to the snoop filter.
system.cpu3.mmucache.mmubus.snoop_filter.tot_snoops            0                       # Total number of snoops made to the snoop filter.
system.cpu3.not_idle_fraction                       1                       # Percentage of non-idle cycles
system.cpu3.numCycles                              30                       # number of cpu cycles simulated
system.cpu3.numWorkItemsCompleted                   0                       # number of work items this cpu completed
system.cpu3.numWorkItemsStarted                     0                       # number of work items this cpu started
system.cpu3.num_busy_cycles                        30                       # Number of busy cycles
system.cpu3.num_conditional_control_insts            0                       # number of instructions that are conditional controls
system.cpu3.num_fp_alu_accesses                    24                       # Number of float alu accesses
system.cpu3.num_fp_insts                           24                       # number of float instructions
system.cpu3.num_fp_register_reads                  44                       # number of times the floating registers were read
system.cpu3.num_fp_register_writes                 22                       # number of times the floating registers were written
system.cpu3.num_func_calls                          0                       # number of times a function call or return occured
system.cpu3.num_idle_cycles                         0                       # Number of idle cycles
system.cpu3.num_int_alu_accesses                   10                       # Number of integer alu accesses
system.cpu3.num_int_insts                          10                       # number of integer instructions
system.cpu3.num_int_register_reads                 30                       # number of times the integer registers were read
system.cpu3.num_int_register_writes                 0                       # number of times the integer registers were written
system.cpu3.num_load_insts                          8                       # Number of load instructions
system.cpu3.num_mem_refs                           10                       # number of memory refs
system.cpu3.num_store_insts                         2                       # Number of store instructions
system.cpu3.num_vec_alu_accesses                    0                       # Number of vector alu accesses
system.cpu3.num_vec_insts                           0                       # number of vector instructions
system.cpu3.num_vec_register_reads                  0                       # number of times the vector registers were read
system.cpu3.num_vec_register_writes                 0                       # number of times the vector registers were written
system.cpu3.op_class::No_OpClass                    0      0.00%      0.00% # Class of executed instruction
system.cpu3.op_class::IntAlu                        0      0.00%      0.00% # Class of executed instruction
system.cpu3.op_class::IntMult                       0      0.00%      0.00% # Class of executed instruction
system.cpu3.op_class::IntDiv                        0      0.00%      0.00% # Class of executed instruction
system.cpu3.op_class::FloatAdd                      0      0.00%      0.00% # Class of executed instruction
system.cpu3.op_class::FloatCmp                      0      0.00%      0.00% # Class of executed instruction
system.cpu3.op_class::FloatCvt                      0      0.00%      0.00% # Class of executed instruction
system.cpu3.op_class::FloatMult                     0      0.00%      0.00% # Class of executed instruction
system.cpu3.op_class::FloatMultAcc                  0      0.00%      0.00% # Class of executed instruction
system.cpu3.op_class::FloatDiv                      0      0.00%      0.00% # Class of executed instruction
system.cpu3.op_class::FloatMisc                     0      0.00%      0.00% # Class of executed instruction
system.cpu3.op_class::FloatSqrt                     0      0.00%      0.00% # Class of executed instruction
system.cpu3.op_class::SimdAdd                       0      0.00%      0.00% # Class of executed instruction
system.cpu3.op_class::SimdAddAcc                    0      0.00%      0.00% # Class of executed instruction
system.cpu3.op_class::SimdAlu                       0      0.00%      0.00% # Class of executed instruction
system.cpu3.op_class::SimdCmp                       0      0.00%      0.00% # Class of executed instruction
system.cpu3.op_class::SimdCvt                       0      0.00%      0.00% # Class of executed instruction
system.cpu3.op_class::SimdMisc                      0      0.00%      0.00% # Class of executed instruction
system.cpu3.op_class::SimdMult                      0      0.00%      0.00% # Class of executed instruction
system.cpu3.op_class::SimdMultAcc                   0      0.00%      0.00% # Class of executed instruction
system.cpu3.op_class::SimdShift                     0      0.00%      0.00% # Class of executed instruction
system.cpu3.op_class::SimdShiftAcc                  0      0.00%      0.00% # Class of executed instruction
system.cpu3.op_class::SimdDiv                       0      0.00%      0.00% # Class of executed instruction
system.cpu3.op_class::SimdSqrt                      0      0.00%      0.00% # Class of executed instruction
system.cpu3.op_class::SimdFloatAdd                  6     25.00%     25.00% # Class of executed instruction
system.cpu3.op_class::SimdFloatAlu                  0      0.00%     25.00% # Class of executed instruction
system.cpu3.op_class::SimdFloatCmp                  0      0.00%     25.00% # Class of executed instruction
system.cpu3.op_class::SimdFloatCvt                  0      0.00%     25.00% # Class of executed instruction
system.cpu3.op_class::SimdFloatDiv                  0      0.00%     25.00% # Class of executed instruction
system.cpu3.op_class::SimdFloatMisc                 0      0.00%     25.00% # Class of executed instruction
system.cpu3.op_class::SimdFloatMult                 8     33.33%     58.33% # Class of executed instruction
system.cpu3.op_class::SimdFloatMultAcc              0      0.00%     58.33% # Class of executed instruction
system.cpu3.op_class::SimdFloatSqrt                 0      0.00%     58.33% # Class of executed instruction
system.cpu3.op_class::SimdReduceAdd                 0      0.00%     58.33% # Class of executed instruction
system.cpu3.op_class::SimdReduceAlu                 0      0.00%     58.33% # Class of executed instruction
system.cpu3.op_class::SimdReduceCmp                 0      0.00%     58.33% # Class of executed instruction
system.cpu3.op_class::SimdFloatReduceAdd            0      0.00%     58.33% # Class of executed instruction
system.cpu3.op_class::SimdFloatReduceCmp            0      0.00%     58.33% # Class of executed instruction
system.cpu3.op_class::SimdAes                       0      0.00%     58.33% # Class of executed instruction
system.cpu3.op_class::SimdAesMix                    0      0.00%     58.33% # Class of executed instruction
system.cpu3.op_class::SimdSha1Hash                  0      0.00%     58.33% # Class of executed instruction
system.cpu3.op_class::SimdSha1Hash2                 0      0.00%     58.33% # Class of executed instruction
system.cpu3.op_class::SimdSha256Hash                0      0.00%     58.33% # Class of executed instruction
system.cpu3.op_class::SimdSha256Hash2               0      0.00%     58.33% # Class of executed instruction
system.cpu3.op_class::SimdShaSigma2                 0      0.00%     58.33% # Class of executed instruction
system.cpu3.op_class::SimdShaSigma3                 0      0.00%     58.33% # Class of executed instruction
system.cpu3.op_class::SimdPredAlu                   0      0.00%     58.33% # Class of executed instruction
system.cpu3.op_class::MemRead                       0      0.00%     58.33% # Class of executed instruction
system.cpu3.op_class::MemWrite                      0      0.00%     58.33% # Class of executed instruction
system.cpu3.op_class::FloatMemRead                  8     33.33%     91.67% # Class of executed instruction
system.cpu3.op_class::FloatMemWrite                 2      8.33%    100.00% # Class of executed instruction
system.cpu3.op_class::IprAccess                     0      0.00%    100.00% # Class of executed instruction
system.cpu3.op_class::InstPrefetch                  0      0.00%    100.00% # Class of executed instruction
system.cpu3.op_class::total                        24                       # Class of executed instruction
system.cpu3.workload.numSyscalls                    0                       # Number of system calls
system.l3bus.snoop_filter.hit_multi_requests            0                       # Number of requests hitting in the snoop filter with multiple (>1) holders of the requested data.
system.l3bus.snoop_filter.hit_multi_snoops            0                       # Number of snoops hitting in the snoop filter with multiple (>1) holders of the requested data.
system.l3bus.snoop_filter.hit_single_requests     45094012                       # Number of requests hitting in the snoop filter with a single holder of the requested data.
system.l3bus.snoop_filter.hit_single_snoops            2                       # Number of snoops hitting in the snoop filter with a single holder of the requested data.
system.l3bus.snoop_filter.tot_requests       90485089                       # Total number of requests made to the snoop filter.
system.l3bus.snoop_filter.tot_snoops                2                       # Total number of snoops made to the snoop filter.
system.membus.snoop_filter.hit_multi_requests            0                       # Number of requests hitting in the snoop filter with multiple (>1) holders of the requested data.
system.membus.snoop_filter.hit_multi_snoops            0                       # Number of snoops hitting in the snoop filter with multiple (>1) holders of the requested data.
system.membus.snoop_filter.hit_single_requests     16347866                       # Number of requests hitting in the snoop filter with a single holder of the requested data.
system.membus.snoop_filter.hit_single_snoops            0                       # Number of snoops hitting in the snoop filter with a single holder of the requested data.
system.membus.snoop_filter.tot_requests      32766376                       # Total number of requests made to the snoop filter.
system.membus.snoop_filter.tot_snoops               0                       # Total number of snoops made to the snoop filter.
system.switch_cpus0.cc_regfile_reads         71043048                       # number of cc regfile reads
system.switch_cpus0.cc_regfile_writes        51301370                       # number of cc regfile writes
system.switch_cpus0.committedInsts          250000000                       # Number of Instructions Simulated
system.switch_cpus0.committedOps            349757009                       # Number of Ops (including micro ops) Simulated
system.switch_cpus0.cpi                      4.748309                       # CPI: Cycles Per Instruction
system.switch_cpus0.cpi_total                4.748309                       # CPI: Total CPI of All Threads
system.switch_cpus0.fp_regfile_reads        296813629                       # number of floating regfile reads
system.switch_cpus0.fp_regfile_writes       151658028                       # number of floating regfile writes
system.switch_cpus0.idleCycles                 381552                       # Total number of cycles that the CPU has spent unscheduled due to idling
system.switch_cpus0.iew.branchMispredicts        21813                       # Number of branch mispredicts detected at execute
system.switch_cpus0.iew.exec_branches        19587149                       # Number of branches executed
system.switch_cpus0.iew.exec_nop                    0                       # number of nop insts executed
system.switch_cpus0.iew.exec_rate            0.296695                       # Inst execution rate
system.switch_cpus0.iew.exec_refs           130537979                       # number of memory reference insts executed
system.switch_cpus0.iew.exec_stores          36758224                       # Number of stores executed
system.switch_cpus0.iew.exec_swp                    0                       # number of swp insts executed
system.switch_cpus0.iew.iewBlockCycles      179210895                       # Number of cycles IEW is blocking
system.switch_cpus0.iew.iewDispLoadInsts     91697267                       # Number of dispatched load instructions
system.switch_cpus0.iew.iewDispNonSpecInsts           10                       # Number of dispatched non-speculative instructions
system.switch_cpus0.iew.iewDispSquashedInsts          353                       # Number of squashed instructions skipped by dispatch
system.switch_cpus0.iew.iewDispStoreInsts     36803022                       # Number of dispatched store instructions
system.switch_cpus0.iew.iewDispatchedInsts    350255396                       # Number of instructions dispatched to IQ
system.switch_cpus0.iew.iewExecLoadInsts     93779755                       # Number of load instructions executed
system.switch_cpus0.iew.iewExecSquashedInsts        42878                       # Number of squashed instructions skipped in execute
system.switch_cpus0.iew.iewExecutedInsts    352200193                       # Number of executed instructions
system.switch_cpus0.iew.iewIQFullEvents        597841                       # Number of times the IQ has become full, causing a stall
system.switch_cpus0.iew.iewIdleCycles               0                       # Number of cycles IEW is idle
system.switch_cpus0.iew.iewLSQFullEvents    369091702                       # Number of times the LSQ has become full, causing a stall
system.switch_cpus0.iew.iewSquashCycles         22770                       # Number of cycles IEW is squashing
system.switch_cpus0.iew.iewUnblockCycles    370776489                       # Number of cycles IEW is unblocking
system.switch_cpus0.iew.memOrderViolationEvents         2260                       # Number of memory order violations
system.switch_cpus0.iew.predictedNotTakenIncorrect         9249                       # Number of branches that were predicted not taken incorrectly
system.switch_cpus0.iew.predictedTakenIncorrect        12564                       # Number of branches that were predicted taken incorrectly
system.switch_cpus0.iew.wb_consumers        353566604                       # num instructions consuming a value
system.switch_cpus0.iew.wb_count            349991375                       # cumulative count of insts written-back
system.switch_cpus0.iew.wb_fanout            0.645335                       # average fanout of values written-back
system.switch_cpus0.iew.wb_producers        228168939                       # num instructions producing a value
system.switch_cpus0.iew.wb_rate              0.294835                       # insts written-back per cycle
system.switch_cpus0.iew.wb_sent             349998476                       # cumulative count of insts sent to commit
system.switch_cpus0.int_regfile_reads       384458659                       # number of integer regfile reads
system.switch_cpus0.int_regfile_writes      139901394                       # number of integer regfile writes
system.switch_cpus0.ipc                      0.210601                       # IPC: Instructions Per Cycle
system.switch_cpus0.ipc_total                0.210601                       # IPC: Total IPC of All Threads
system.switch_cpus0.iq.FU_type_0::No_OpClass         5823      0.00%      0.00% # Type of FU issued
system.switch_cpus0.iq.FU_type_0::IntAlu    136239439     38.68%     38.68% # Type of FU issued
system.switch_cpus0.iq.FU_type_0::IntMult       250650      0.07%     38.75% # Type of FU issued
system.switch_cpus0.iq.FU_type_0::IntDiv           14      0.00%     38.75% # Type of FU issued
system.switch_cpus0.iq.FU_type_0::FloatAdd      6295902      1.79%     40.54% # Type of FU issued
system.switch_cpus0.iq.FU_type_0::FloatCmp            0      0.00%     40.54% # Type of FU issued
system.switch_cpus0.iq.FU_type_0::FloatCvt            2      0.00%     40.54% # Type of FU issued
system.switch_cpus0.iq.FU_type_0::FloatMult            0      0.00%     40.54% # Type of FU issued
system.switch_cpus0.iq.FU_type_0::FloatMultAcc            0      0.00%     40.54% # Type of FU issued
system.switch_cpus0.iq.FU_type_0::FloatDiv            0      0.00%     40.54% # Type of FU issued
system.switch_cpus0.iq.FU_type_0::FloatMisc            0      0.00%     40.54% # Type of FU issued
system.switch_cpus0.iq.FU_type_0::FloatSqrt            0      0.00%     40.54% # Type of FU issued
system.switch_cpus0.iq.FU_type_0::SimdAdd          168      0.00%     40.54% # Type of FU issued
system.switch_cpus0.iq.FU_type_0::SimdAddAcc            0      0.00%     40.54% # Type of FU issued
system.switch_cpus0.iq.FU_type_0::SimdAlu      1147397      0.33%     40.86% # Type of FU issued
system.switch_cpus0.iq.FU_type_0::SimdCmp            0      0.00%     40.86% # Type of FU issued
system.switch_cpus0.iq.FU_type_0::SimdCvt         1696      0.00%     40.86% # Type of FU issued
system.switch_cpus0.iq.FU_type_0::SimdMisc      2863951      0.81%     41.68% # Type of FU issued
system.switch_cpus0.iq.FU_type_0::SimdMult            0      0.00%     41.68% # Type of FU issued
system.switch_cpus0.iq.FU_type_0::SimdMultAcc            0      0.00%     41.68% # Type of FU issued
system.switch_cpus0.iq.FU_type_0::SimdShift            0      0.00%     41.68% # Type of FU issued
system.switch_cpus0.iq.FU_type_0::SimdShiftAcc            0      0.00%     41.68% # Type of FU issued
system.switch_cpus0.iq.FU_type_0::SimdDiv            0      0.00%     41.68% # Type of FU issued
system.switch_cpus0.iq.FU_type_0::SimdSqrt            0      0.00%     41.68% # Type of FU issued
system.switch_cpus0.iq.FU_type_0::SimdFloatAdd     27045230      7.68%     49.36% # Type of FU issued
system.switch_cpus0.iq.FU_type_0::SimdFloatAlu            0      0.00%     49.36% # Type of FU issued
system.switch_cpus0.iq.FU_type_0::SimdFloatCmp       592710      0.17%     49.52% # Type of FU issued
system.switch_cpus0.iq.FU_type_0::SimdFloatCvt      2310031      0.66%     50.18% # Type of FU issued
system.switch_cpus0.iq.FU_type_0::SimdFloatDiv           13      0.00%     50.18% # Type of FU issued
system.switch_cpus0.iq.FU_type_0::SimdFloatMisc            0      0.00%     50.18% # Type of FU issued
system.switch_cpus0.iq.FU_type_0::SimdFloatMult     44923042     12.75%     62.93% # Type of FU issued
system.switch_cpus0.iq.FU_type_0::SimdFloatMultAcc            0      0.00%     62.93% # Type of FU issued
system.switch_cpus0.iq.FU_type_0::SimdFloatSqrt            0      0.00%     62.93% # Type of FU issued
system.switch_cpus0.iq.FU_type_0::SimdReduceAdd            0      0.00%     62.93% # Type of FU issued
system.switch_cpus0.iq.FU_type_0::SimdReduceAlu            0      0.00%     62.93% # Type of FU issued
system.switch_cpus0.iq.FU_type_0::SimdReduceCmp            0      0.00%     62.93% # Type of FU issued
system.switch_cpus0.iq.FU_type_0::SimdFloatReduceAdd            0      0.00%     62.93% # Type of FU issued
system.switch_cpus0.iq.FU_type_0::SimdFloatReduceCmp            0      0.00%     62.93% # Type of FU issued
system.switch_cpus0.iq.FU_type_0::SimdAes            0      0.00%     62.93% # Type of FU issued
system.switch_cpus0.iq.FU_type_0::SimdAesMix            0      0.00%     62.93% # Type of FU issued
system.switch_cpus0.iq.FU_type_0::SimdSha1Hash            0      0.00%     62.93% # Type of FU issued
system.switch_cpus0.iq.FU_type_0::SimdSha1Hash2            0      0.00%     62.93% # Type of FU issued
system.switch_cpus0.iq.FU_type_0::SimdSha256Hash            0      0.00%     62.93% # Type of FU issued
system.switch_cpus0.iq.FU_type_0::SimdSha256Hash2            0      0.00%     62.93% # Type of FU issued
system.switch_cpus0.iq.FU_type_0::SimdShaSigma2            0      0.00%     62.93% # Type of FU issued
system.switch_cpus0.iq.FU_type_0::SimdShaSigma3            0      0.00%     62.93% # Type of FU issued
system.switch_cpus0.iq.FU_type_0::SimdPredAlu            0      0.00%     62.93% # Type of FU issued
system.switch_cpus0.iq.FU_type_0::MemRead     40976977     11.63%     74.57% # Type of FU issued
system.switch_cpus0.iq.FU_type_0::MemWrite      6819341      1.94%     76.50% # Type of FU issued
system.switch_cpus0.iq.FU_type_0::FloatMemRead     52830716     15.00%     91.50% # Type of FU issued
system.switch_cpus0.iq.FU_type_0::FloatMemWrite     29939969      8.50%    100.00% # Type of FU issued
system.switch_cpus0.iq.FU_type_0::IprAccess            0      0.00%    100.00% # Type of FU issued
system.switch_cpus0.iq.FU_type_0::InstPrefetch            0      0.00%    100.00% # Type of FU issued
system.switch_cpus0.iq.FU_type_0::total     352243071                       # Type of FU issued
system.switch_cpus0.iq.fp_alu_accesses      193546012                       # Number of floating point alu accesses
system.switch_cpus0.iq.fp_inst_queue_reads    381200944                       # Number of floating instruction queue reads
system.switch_cpus0.iq.fp_inst_queue_wakeup_accesses    186769511                       # Number of floating instruction queue wakeup accesses
system.switch_cpus0.iq.fp_inst_queue_writes    187015571                       # Number of floating instruction queue writes
system.switch_cpus0.iq.fu_busy_cnt            9102382                       # FU busy when requested
system.switch_cpus0.iq.fu_busy_rate          0.025841                       # FU busy rate (busy events/executed inst)
system.switch_cpus0.iq.fu_full::No_OpClass            0      0.00%      0.00% # attempts to use FU when none available
system.switch_cpus0.iq.fu_full::IntAlu         210086      2.31%      2.31% # attempts to use FU when none available
system.switch_cpus0.iq.fu_full::IntMult             0      0.00%      2.31% # attempts to use FU when none available
system.switch_cpus0.iq.fu_full::IntDiv              0      0.00%      2.31% # attempts to use FU when none available
system.switch_cpus0.iq.fu_full::FloatAdd            0      0.00%      2.31% # attempts to use FU when none available
system.switch_cpus0.iq.fu_full::FloatCmp            0      0.00%      2.31% # attempts to use FU when none available
system.switch_cpus0.iq.fu_full::FloatCvt            0      0.00%      2.31% # attempts to use FU when none available
system.switch_cpus0.iq.fu_full::FloatMult            0      0.00%      2.31% # attempts to use FU when none available
system.switch_cpus0.iq.fu_full::FloatMultAcc            0      0.00%      2.31% # attempts to use FU when none available
system.switch_cpus0.iq.fu_full::FloatDiv            0      0.00%      2.31% # attempts to use FU when none available
system.switch_cpus0.iq.fu_full::FloatMisc            0      0.00%      2.31% # attempts to use FU when none available
system.switch_cpus0.iq.fu_full::FloatSqrt            0      0.00%      2.31% # attempts to use FU when none available
system.switch_cpus0.iq.fu_full::SimdAdd             0      0.00%      2.31% # attempts to use FU when none available
system.switch_cpus0.iq.fu_full::SimdAddAcc            0      0.00%      2.31% # attempts to use FU when none available
system.switch_cpus0.iq.fu_full::SimdAlu           174      0.00%      2.31% # attempts to use FU when none available
system.switch_cpus0.iq.fu_full::SimdCmp             0      0.00%      2.31% # attempts to use FU when none available
system.switch_cpus0.iq.fu_full::SimdCvt             9      0.00%      2.31% # attempts to use FU when none available
system.switch_cpus0.iq.fu_full::SimdMisc          146      0.00%      2.31% # attempts to use FU when none available
system.switch_cpus0.iq.fu_full::SimdMult            0      0.00%      2.31% # attempts to use FU when none available
system.switch_cpus0.iq.fu_full::SimdMultAcc            0      0.00%      2.31% # attempts to use FU when none available
system.switch_cpus0.iq.fu_full::SimdShift            0      0.00%      2.31% # attempts to use FU when none available
system.switch_cpus0.iq.fu_full::SimdShiftAcc            0      0.00%      2.31% # attempts to use FU when none available
system.switch_cpus0.iq.fu_full::SimdDiv             0      0.00%      2.31% # attempts to use FU when none available
system.switch_cpus0.iq.fu_full::SimdSqrt            0      0.00%      2.31% # attempts to use FU when none available
system.switch_cpus0.iq.fu_full::SimdFloatAdd       594259      6.53%      8.84% # attempts to use FU when none available
system.switch_cpus0.iq.fu_full::SimdFloatAlu            0      0.00%      8.84% # attempts to use FU when none available
system.switch_cpus0.iq.fu_full::SimdFloatCmp        30836      0.34%      9.18% # attempts to use FU when none available
system.switch_cpus0.iq.fu_full::SimdFloatCvt        13690      0.15%      9.33% # attempts to use FU when none available
system.switch_cpus0.iq.fu_full::SimdFloatDiv            0      0.00%      9.33% # attempts to use FU when none available
system.switch_cpus0.iq.fu_full::SimdFloatMisc            0      0.00%      9.33% # attempts to use FU when none available
system.switch_cpus0.iq.fu_full::SimdFloatMult      1529553     16.80%     26.13% # attempts to use FU when none available
system.switch_cpus0.iq.fu_full::SimdFloatMultAcc            0      0.00%     26.13% # attempts to use FU when none available
system.switch_cpus0.iq.fu_full::SimdFloatSqrt            0      0.00%     26.13% # attempts to use FU when none available
system.switch_cpus0.iq.fu_full::SimdReduceAdd            0      0.00%     26.13% # attempts to use FU when none available
system.switch_cpus0.iq.fu_full::SimdReduceAlu            0      0.00%     26.13% # attempts to use FU when none available
system.switch_cpus0.iq.fu_full::SimdReduceCmp            0      0.00%     26.13% # attempts to use FU when none available
system.switch_cpus0.iq.fu_full::SimdFloatReduceAdd            0      0.00%     26.13% # attempts to use FU when none available
system.switch_cpus0.iq.fu_full::SimdFloatReduceCmp            0      0.00%     26.13% # attempts to use FU when none available
system.switch_cpus0.iq.fu_full::SimdAes             0      0.00%     26.13% # attempts to use FU when none available
system.switch_cpus0.iq.fu_full::SimdAesMix            0      0.00%     26.13% # attempts to use FU when none available
system.switch_cpus0.iq.fu_full::SimdSha1Hash            0      0.00%     26.13% # attempts to use FU when none available
system.switch_cpus0.iq.fu_full::SimdSha1Hash2            0      0.00%     26.13% # attempts to use FU when none available
system.switch_cpus0.iq.fu_full::SimdSha256Hash            0      0.00%     26.13% # attempts to use FU when none available
system.switch_cpus0.iq.fu_full::SimdSha256Hash2            0      0.00%     26.13% # attempts to use FU when none available
system.switch_cpus0.iq.fu_full::SimdShaSigma2            0      0.00%     26.13% # attempts to use FU when none available
system.switch_cpus0.iq.fu_full::SimdShaSigma3            0      0.00%     26.13% # attempts to use FU when none available
system.switch_cpus0.iq.fu_full::SimdPredAlu            0      0.00%     26.13% # attempts to use FU when none available
system.switch_cpus0.iq.fu_full::MemRead       2905080     31.92%     58.05% # attempts to use FU when none available
system.switch_cpus0.iq.fu_full::MemWrite       108915      1.20%     59.25% # attempts to use FU when none available
system.switch_cpus0.iq.fu_full::FloatMemRead      3702549     40.68%     99.92% # attempts to use FU when none available
system.switch_cpus0.iq.fu_full::FloatMemWrite         7085      0.08%    100.00% # attempts to use FU when none available
system.switch_cpus0.iq.fu_full::IprAccess            0      0.00%    100.00% # attempts to use FU when none available
system.switch_cpus0.iq.fu_full::InstPrefetch            0      0.00%    100.00% # attempts to use FU when none available
system.switch_cpus0.iq.int_alu_accesses     167793618                       # Number of integer alu accesses
system.switch_cpus0.iq.int_inst_queue_reads   1519093138                       # Number of integer instruction queue reads
system.switch_cpus0.iq.int_inst_queue_wakeup_accesses    163221864                       # Number of integer instruction queue wakeup accesses
system.switch_cpus0.iq.int_inst_queue_writes    163740456                       # Number of integer instruction queue writes
system.switch_cpus0.iq.iqInstsAdded         350255366                       # Number of instructions added to the IQ (excludes non-spec)
system.switch_cpus0.iq.iqInstsIssued        352243071                       # Number of instructions issued
system.switch_cpus0.iq.iqNonSpecInstsAdded           30                       # Number of non-speculative instructions added to the IQ
system.switch_cpus0.iq.iqSquashedInstsExamined       498387                       # Number of squashed instructions iterated over during squash; mainly for profiling
system.switch_cpus0.iq.iqSquashedInstsIssued         9749                       # Number of squashed instructions issued
system.switch_cpus0.iq.iqSquashedNonSpecRemoved           30                       # Number of squashed non-spec instructions that were removed
system.switch_cpus0.iq.iqSquashedOperandsExamined       810028                       # Number of squashed operands that are examined and possibly removed from graph
system.switch_cpus0.iq.issued_per_cycle::samples   1186695809                       # Number of insts issued each cycle
system.switch_cpus0.iq.issued_per_cycle::mean     0.296827                       # Number of insts issued each cycle
system.switch_cpus0.iq.issued_per_cycle::stdev     1.105996                       # Number of insts issued each cycle
system.switch_cpus0.iq.issued_per_cycle::underflows            0      0.00%      0.00% # Number of insts issued each cycle
system.switch_cpus0.iq.issued_per_cycle::0   1074008487     90.50%     90.50% # Number of insts issued each cycle
system.switch_cpus0.iq.issued_per_cycle::1     32592507      2.75%     93.25% # Number of insts issued each cycle
system.switch_cpus0.iq.issued_per_cycle::2     20794516      1.75%     95.00% # Number of insts issued each cycle
system.switch_cpus0.iq.issued_per_cycle::3     15897616      1.34%     96.34% # Number of insts issued each cycle
system.switch_cpus0.iq.issued_per_cycle::4     16004360      1.35%     97.69% # Number of insts issued each cycle
system.switch_cpus0.iq.issued_per_cycle::5     10984743      0.93%     98.62% # Number of insts issued each cycle
system.switch_cpus0.iq.issued_per_cycle::6      7181479      0.61%     99.22% # Number of insts issued each cycle
system.switch_cpus0.iq.issued_per_cycle::7      5518153      0.47%     99.69% # Number of insts issued each cycle
system.switch_cpus0.iq.issued_per_cycle::8      3713948      0.31%    100.00% # Number of insts issued each cycle
system.switch_cpus0.iq.issued_per_cycle::overflows            0      0.00%    100.00% # Number of insts issued each cycle
system.switch_cpus0.iq.issued_per_cycle::min_value            0                       # Number of insts issued each cycle
system.switch_cpus0.iq.issued_per_cycle::max_value            8                       # Number of insts issued each cycle
system.switch_cpus0.iq.issued_per_cycle::total   1186695809                       # Number of insts issued each cycle
system.switch_cpus0.iq.rate                  0.296731                       # Inst issue rate
system.switch_cpus0.iq.vec_alu_accesses             0                       # Number of vector alu accesses
system.switch_cpus0.iq.vec_inst_queue_reads            0                       # Number of vector instruction queue reads
system.switch_cpus0.iq.vec_inst_queue_wakeup_accesses            0                       # Number of vector instruction queue wakeup accesses
system.switch_cpus0.iq.vec_inst_queue_writes            0                       # Number of vector instruction queue writes
system.switch_cpus0.memDep0.conflictingLoads      6669005                       # Number of conflicting loads.
system.switch_cpus0.memDep0.conflictingStores      1325472                       # Number of conflicting stores.
system.switch_cpus0.memDep0.insertedLoads     91697267                       # Number of loads inserted to the mem dependence unit.
system.switch_cpus0.memDep0.insertedStores     36803022                       # Number of stores inserted to the mem dependence unit.
system.switch_cpus0.misc_regfile_reads      179624539                       # number of misc regfile reads
system.switch_cpus0.misc_regfile_writes             1                       # number of misc regfile writes
system.switch_cpus0.numCycles              1187077361                       # number of cpu cycles simulated
system.switch_cpus0.numWorkItemsCompleted            0                       # number of work items this cpu completed
system.switch_cpus0.numWorkItemsStarted             0                       # number of work items this cpu started
system.switch_cpus0.timesIdled                   1259                       # Number of times that the entire CPU went into an idle state and unscheduled itself
system.switch_cpus1.cc_regfile_reads         71041667                       # number of cc regfile reads
system.switch_cpus1.cc_regfile_writes        51300190                       # number of cc regfile writes
system.switch_cpus1.committedInsts          249995808                       # Number of Instructions Simulated
system.switch_cpus1.committedOps            349750945                       # Number of Ops (including micro ops) Simulated
system.switch_cpus1.cpi                      4.748389                       # CPI: Cycles Per Instruction
system.switch_cpus1.cpi_total                4.748389                       # CPI: Total CPI of All Threads
system.switch_cpus1.fp_regfile_reads        296809340                       # number of floating regfile reads
system.switch_cpus1.fp_regfile_writes       151655766                       # number of floating regfile writes
system.switch_cpus1.idleCycles                 383548                       # Total number of cycles that the CPU has spent unscheduled due to idling
system.switch_cpus1.iew.branchMispredicts        21790                       # Number of branch mispredicts detected at execute
system.switch_cpus1.iew.exec_branches        19586827                       # Number of branches executed
system.switch_cpus1.iew.exec_nop                    0                       # number of nop insts executed
system.switch_cpus1.iew.exec_rate            0.296699                       # Inst execution rate
system.switch_cpus1.iew.exec_refs           130546313                       # number of memory reference insts executed
system.switch_cpus1.iew.exec_stores          36757469                       # Number of stores executed
system.switch_cpus1.iew.exec_swp                    0                       # number of swp insts executed
system.switch_cpus1.iew.iewBlockCycles      179926513                       # Number of cycles IEW is blocking
system.switch_cpus1.iew.iewDispLoadInsts     91695506                       # Number of dispatched load instructions
system.switch_cpus1.iew.iewDispNonSpecInsts            9                       # Number of dispatched non-speculative instructions
system.switch_cpus1.iew.iewDispSquashedInsts          304                       # Number of squashed instructions skipped by dispatch
system.switch_cpus1.iew.iewDispStoreInsts     36801987                       # Number of dispatched store instructions
system.switch_cpus1.iew.iewDispatchedInsts    350248428                       # Number of instructions dispatched to IQ
system.switch_cpus1.iew.iewExecLoadInsts     93788844                       # Number of load instructions executed
system.switch_cpus1.iew.iewExecSquashedInsts        42805                       # Number of squashed instructions skipped in execute
system.switch_cpus1.iew.iewExecutedInsts    352204480                       # Number of executed instructions
system.switch_cpus1.iew.iewIQFullEvents        584554                       # Number of times the IQ has become full, causing a stall
system.switch_cpus1.iew.iewIdleCycles               0                       # Number of cycles IEW is idle
system.switch_cpus1.iew.iewLSQFullEvents    367986486                       # Number of times the LSQ has become full, causing a stall
system.switch_cpus1.iew.iewSquashCycles         22760                       # Number of cycles IEW is squashing
system.switch_cpus1.iew.iewUnblockCycles    369662405                       # Number of cycles IEW is unblocking
system.switch_cpus1.iew.memOrderViolationEvents         2268                       # Number of memory order violations
system.switch_cpus1.iew.predictedNotTakenIncorrect         9228                       # Number of branches that were predicted not taken incorrectly
system.switch_cpus1.iew.predictedTakenIncorrect        12562                       # Number of branches that were predicted taken incorrectly
system.switch_cpus1.iew.wb_consumers        353592403                       # num instructions consuming a value
system.switch_cpus1.iew.wb_count            349985059                       # cumulative count of insts written-back
system.switch_cpus1.iew.wb_fanout            0.645398                       # average fanout of values written-back
system.switch_cpus1.iew.wb_producers        228207973                       # num instructions producing a value
system.switch_cpus1.iew.wb_rate              0.294829                       # insts written-back per cycle
system.switch_cpus1.iew.wb_sent             349992168                       # cumulative count of insts sent to commit
system.switch_cpus1.int_regfile_reads       384472251                       # number of integer regfile reads
system.switch_cpus1.int_regfile_writes      139898496                       # number of integer regfile writes
system.switch_cpus1.ipc                      0.210598                       # IPC: Instructions Per Cycle
system.switch_cpus1.ipc_total                0.210598                       # IPC: Total IPC of All Threads
system.switch_cpus1.iq.FU_type_0::No_OpClass         5805      0.00%      0.00% # Type of FU issued
system.switch_cpus1.iq.FU_type_0::IntAlu    136236679     38.68%     38.68% # Type of FU issued
system.switch_cpus1.iq.FU_type_0::IntMult       250656      0.07%     38.75% # Type of FU issued
system.switch_cpus1.iq.FU_type_0::IntDiv           14      0.00%     38.75% # Type of FU issued
system.switch_cpus1.iq.FU_type_0::FloatAdd      6295726      1.79%     40.54% # Type of FU issued
system.switch_cpus1.iq.FU_type_0::FloatCmp            0      0.00%     40.54% # Type of FU issued
system.switch_cpus1.iq.FU_type_0::FloatCvt            2      0.00%     40.54% # Type of FU issued
system.switch_cpus1.iq.FU_type_0::FloatMult            0      0.00%     40.54% # Type of FU issued
system.switch_cpus1.iq.FU_type_0::FloatMultAcc            0      0.00%     40.54% # Type of FU issued
system.switch_cpus1.iq.FU_type_0::FloatDiv            0      0.00%     40.54% # Type of FU issued
system.switch_cpus1.iq.FU_type_0::FloatMisc            0      0.00%     40.54% # Type of FU issued
system.switch_cpus1.iq.FU_type_0::FloatSqrt            0      0.00%     40.54% # Type of FU issued
system.switch_cpus1.iq.FU_type_0::SimdAdd          168      0.00%     40.54% # Type of FU issued
system.switch_cpus1.iq.FU_type_0::SimdAddAcc            0      0.00%     40.54% # Type of FU issued
system.switch_cpus1.iq.FU_type_0::SimdAlu      1147367      0.33%     40.86% # Type of FU issued
system.switch_cpus1.iq.FU_type_0::SimdCmp            0      0.00%     40.86% # Type of FU issued
system.switch_cpus1.iq.FU_type_0::SimdCvt         1698      0.00%     40.86% # Type of FU issued
system.switch_cpus1.iq.FU_type_0::SimdMisc      2863874      0.81%     41.68% # Type of FU issued
system.switch_cpus1.iq.FU_type_0::SimdMult            0      0.00%     41.68% # Type of FU issued
system.switch_cpus1.iq.FU_type_0::SimdMultAcc            0      0.00%     41.68% # Type of FU issued
system.switch_cpus1.iq.FU_type_0::SimdShift            0      0.00%     41.68% # Type of FU issued
system.switch_cpus1.iq.FU_type_0::SimdShiftAcc            0      0.00%     41.68% # Type of FU issued
system.switch_cpus1.iq.FU_type_0::SimdDiv            0      0.00%     41.68% # Type of FU issued
system.switch_cpus1.iq.FU_type_0::SimdSqrt            0      0.00%     41.68% # Type of FU issued
system.switch_cpus1.iq.FU_type_0::SimdFloatAdd     27044870      7.68%     49.35% # Type of FU issued
system.switch_cpus1.iq.FU_type_0::SimdFloatAlu            0      0.00%     49.35% # Type of FU issued
system.switch_cpus1.iq.FU_type_0::SimdFloatCmp       592711      0.17%     49.52% # Type of FU issued
system.switch_cpus1.iq.FU_type_0::SimdFloatCvt      2309984      0.66%     50.18% # Type of FU issued
system.switch_cpus1.iq.FU_type_0::SimdFloatDiv           13      0.00%     50.18% # Type of FU issued
system.switch_cpus1.iq.FU_type_0::SimdFloatMisc            0      0.00%     50.18% # Type of FU issued
system.switch_cpus1.iq.FU_type_0::SimdFloatMult     44922429     12.75%     62.93% # Type of FU issued
system.switch_cpus1.iq.FU_type_0::SimdFloatMultAcc            0      0.00%     62.93% # Type of FU issued
system.switch_cpus1.iq.FU_type_0::SimdFloatSqrt            0      0.00%     62.93% # Type of FU issued
system.switch_cpus1.iq.FU_type_0::SimdReduceAdd            0      0.00%     62.93% # Type of FU issued
system.switch_cpus1.iq.FU_type_0::SimdReduceAlu            0      0.00%     62.93% # Type of FU issued
system.switch_cpus1.iq.FU_type_0::SimdReduceCmp            0      0.00%     62.93% # Type of FU issued
system.switch_cpus1.iq.FU_type_0::SimdFloatReduceAdd            0      0.00%     62.93% # Type of FU issued
system.switch_cpus1.iq.FU_type_0::SimdFloatReduceCmp            0      0.00%     62.93% # Type of FU issued
system.switch_cpus1.iq.FU_type_0::SimdAes            0      0.00%     62.93% # Type of FU issued
system.switch_cpus1.iq.FU_type_0::SimdAesMix            0      0.00%     62.93% # Type of FU issued
system.switch_cpus1.iq.FU_type_0::SimdSha1Hash            0      0.00%     62.93% # Type of FU issued
system.switch_cpus1.iq.FU_type_0::SimdSha1Hash2            0      0.00%     62.93% # Type of FU issued
system.switch_cpus1.iq.FU_type_0::SimdSha256Hash            0      0.00%     62.93% # Type of FU issued
system.switch_cpus1.iq.FU_type_0::SimdSha256Hash2            0      0.00%     62.93% # Type of FU issued
system.switch_cpus1.iq.FU_type_0::SimdShaSigma2            0      0.00%     62.93% # Type of FU issued
system.switch_cpus1.iq.FU_type_0::SimdShaSigma3            0      0.00%     62.93% # Type of FU issued
system.switch_cpus1.iq.FU_type_0::SimdPredAlu            0      0.00%     62.93% # Type of FU issued
system.switch_cpus1.iq.FU_type_0::MemRead     40966841     11.63%     74.56% # Type of FU issued
system.switch_cpus1.iq.FU_type_0::MemWrite      6819045      1.94%     76.50% # Type of FU issued
system.switch_cpus1.iq.FU_type_0::FloatMemRead     52849904     15.00%     91.50% # Type of FU issued
system.switch_cpus1.iq.FU_type_0::FloatMemWrite     29939499      8.50%    100.00% # Type of FU issued
system.switch_cpus1.iq.FU_type_0::IprAccess            0      0.00%    100.00% # Type of FU issued
[...]
system.switch_cpus3.commit.numCommittedDist::0   1099524420     92.66%     92.66% # Number of insts commited each cycle
system.switch_cpus3.commit.numCommittedDist::1     24367778      2.05%     94.71% # Number of insts commited each cycle
system.switch_cpus3.commit.numCommittedDist::2     13415185      1.13%     95.84% # Number of insts commited each cycle
system.switch_cpus3.commit.numCommittedDist::3      8388232      0.71%     96.55% # Number of insts commited each cycle
system.switch_cpus3.commit.numCommittedDist::4      9323318      0.79%     97.34% # Number of insts commited each cycle
system.switch_cpus3.commit.numCommittedDist::5      2841677      0.24%     97.58% # Number of insts commited each cycle
system.switch_cpus3.commit.numCommittedDist::6      3478445      0.29%     97.87% # Number of insts commited each cycle
system.switch_cpus3.commit.numCommittedDist::7      1162767      0.10%     97.97% # Number of insts commited each cycle
system.switch_cpus3.commit.numCommittedDist::8     24109929      2.03%    100.00% # Number of insts commited each cycle
system.switch_cpus3.commit.numCommittedDist::overflows            0      0.00%    100.00% # Number of insts commited each cycle
system.switch_cpus3.commit.numCommittedDist::min_value            0                       # Number of insts commited each cycle
system.switch_cpus3.commit.numCommittedDist::max_value            8                       # Number of insts commited each cycle
system.switch_cpus3.commit.numCommittedDist::total   1186611751                       # Number of insts commited each cycle
system.switch_cpus3.commit.instsCommitted    249997899                       # Number of instructions committed
system.switch_cpus3.commit.opsCommitted     349753972                       # Number of ops (including micro ops) committed
system.switch_cpus3.commit.memRefs          128241770                       # Number of memory references committed
system.switch_cpus3.commit.loads             91493571                       # Number of loads committed
system.switch_cpus3.commit.amos                     0                       # Number of atomic instructions committed
system.switch_cpus3.commit.membars                  0                       # Number of memory barriers committed
system.switch_cpus3.commit.branches          19571394                       # Number of branches committed
system.switch_cpus3.commit.vector                   0                       # Number of committed Vector instructions.
system.switch_cpus3.commit.floating         186751229                       # Number of committed floating point instructions.
system.switch_cpus3.commit.integer          247704153                       # Number of committed integer instructions.
system.switch_cpus3.commit.functionCalls      2252861                       # Number of function calls committed.
system.switch_cpus3.commit.committedInstType_0::No_OpClass         4715      0.00%      0.00% # Class of committed instruction
system.switch_cpus3.commit.committedInstType_0::IntAlu    136080545     38.91%     38.91% # Class of committed instruction
system.switch_cpus3.commit.committedInstType_0::IntMult       249476      0.07%     38.98% # Class of committed instruction
system.switch_cpus3.commit.committedInstType_0::IntDiv           14      0.00%     38.98% # Class of committed instruction
system.switch_cpus3.commit.committedInstType_0::FloatAdd      6295127      1.80%     40.78% # Class of committed instruction
system.switch_cpus3.commit.committedInstType_0::FloatCmp            0      0.00%     40.78% # Class of committed instruction
system.switch_cpus3.commit.committedInstType_0::FloatCvt            0      0.00%     40.78% # Class of committed instruction
system.switch_cpus3.commit.committedInstType_0::FloatMult            0      0.00%     40.78% # Class of committed instruction
system.switch_cpus3.commit.committedInstType_0::FloatMultAcc            0      0.00%     40.78% # Class of committed instruction
system.switch_cpus3.commit.committedInstType_0::FloatDiv            0      0.00%     40.78% # Class of committed instruction
system.switch_cpus3.commit.committedInstType_0::FloatMisc            0      0.00%     40.78% # Class of committed instruction
system.switch_cpus3.commit.committedInstType_0::FloatSqrt            0      0.00%     40.78% # Class of committed instruction
system.switch_cpus3.commit.committedInstType_0::SimdAdd          162      0.00%     40.78% # Class of committed instruction
system.switch_cpus3.commit.committedInstType_0::SimdAddAcc            0      0.00%     40.78% # Class of committed instruction
system.switch_cpus3.commit.committedInstType_0::SimdAlu      1146964      0.33%     41.11% # Class of committed instruction
system.switch_cpus3.commit.committedInstType_0::SimdCmp            0      0.00%     41.11% # Class of committed instruction
system.switch_cpus3.commit.committedInstType_0::SimdCvt         1660      0.00%     41.11% # Class of committed instruction
system.switch_cpus3.commit.committedInstType_0::SimdMisc      2863704      0.82%     41.93% # Class of committed instruction
system.switch_cpus3.commit.committedInstType_0::SimdMult            0      0.00%     41.93% # Class of committed instruction
system.switch_cpus3.commit.committedInstType_0::SimdMultAcc            0      0.00%     41.93% # Class of committed instruction
system.switch_cpus3.commit.committedInstType_0::SimdShift            0      0.00%     41.93% # Class of committed instruction
system.switch_cpus3.commit.committedInstType_0::SimdShiftAcc            0      0.00%     41.93% # Class of committed instruction
system.switch_cpus3.commit.committedInstType_0::SimdDiv            0      0.00%     41.93% # Class of committed instruction
system.switch_cpus3.commit.committedInstType_0::SimdSqrt            0      0.00%     41.93% # Class of committed instruction
system.switch_cpus3.commit.committedInstType_0::SimdFloatAdd     27044798      7.73%     49.66% # Class of committed instruction
system.switch_cpus3.commit.committedInstType_0::SimdFloatAlu            0      0.00%     49.66% # Class of committed instruction
system.switch_cpus3.commit.committedInstType_0::SimdFloatCmp       592704      0.17%     49.83% # Class of committed instruction
system.switch_cpus3.commit.committedInstType_0::SimdFloatCvt      2309926      0.66%     50.49% # Class of committed instruction
system.switch_cpus3.commit.committedInstType_0::SimdFloatDiv           12      0.00%     50.49% # Class of committed instruction
system.switch_cpus3.commit.committedInstType_0::SimdFloatMisc            0      0.00%     50.49% # Class of committed instruction
system.switch_cpus3.commit.committedInstType_0::SimdFloatMult     44922395     12.84%     63.33% # Class of committed instruction
system.switch_cpus3.commit.committedInstType_0::SimdFloatMultAcc            0      0.00%     63.33% # Class of committed instruction
system.switch_cpus3.commit.committedInstType_0::SimdFloatSqrt            0      0.00%     63.33% # Class of committed instruction
system.switch_cpus3.commit.committedInstType_0::SimdReduceAdd            0      0.00%     63.33% # Class of committed instruction
system.switch_cpus3.commit.committedInstType_0::SimdReduceAlu            0      0.00%     63.33% # Class of committed instruction
system.switch_cpus3.commit.committedInstType_0::SimdReduceCmp            0      0.00%     63.33% # Class of committed instruction
system.switch_cpus3.commit.committedInstType_0::SimdFloatReduceAdd            0      0.00%     63.33% # Class of committed instruction
system.switch_cpus3.commit.committedInstType_0::SimdFloatReduceCmp            0      0.00%     63.33% # Class of committed instruction
system.switch_cpus3.commit.committedInstType_0::SimdAes            0      0.00%     63.33% # Class of committed instruction
system.switch_cpus3.commit.committedInstType_0::SimdAesMix            0      0.00%     63.33% # Class of committed instruction
system.switch_cpus3.commit.committedInstType_0::SimdSha1Hash            0      0.00%     63.33% # Class of committed instruction
system.switch_cpus3.commit.committedInstType_0::SimdSha1Hash2            0      0.00%     63.33% # Class of committed instruction
system.switch_cpus3.commit.committedInstType_0::SimdSha256Hash            0      0.00%     63.33% # Class of committed instruction
system.switch_cpus3.commit.committedInstType_0::SimdSha256Hash2            0      0.00%     63.33% # Class of committed instruction
system.switch_cpus3.commit.committedInstType_0::SimdShaSigma2            0      0.00%     63.33% # Class of committed instruction
system.switch_cpus3.commit.committedInstType_0::SimdShaSigma3            0      0.00%     63.33% # Class of committed instruction
system.switch_cpus3.commit.committedInstType_0::SimdPredAlu            0      0.00%     63.33% # Class of committed instruction
system.switch_cpus3.commit.committedInstType_0::MemRead     39560436     11.31%     74.64% # Class of committed instruction
system.switch_cpus3.commit.committedInstType_0::MemWrite      6809631      1.95%     76.59% # Class of committed instruction
system.switch_cpus3.commit.committedInstType_0::FloatMemRead     51933135     14.85%     91.44% # Class of committed instruction
system.switch_cpus3.commit.committedInstType_0::FloatMemWrite     29938568      8.56%    100.00% # Class of committed instruction
system.switch_cpus3.commit.committedInstType_0::IprAccess            0      0.00%    100.00% # Class of committed instruction
system.switch_cpus3.commit.committedInstType_0::InstPrefetch            0      0.00%    100.00% # Class of committed instruction
system.switch_cpus3.commit.committedInstType_0::total    349753972                       # Class of committed instruction
system.switch_cpus3.commit.commitEligibleSamples     24109929                       # number cycles where commit BW limit reached
system.switch_cpus3.decode.idleCycles         8583425                       # Number of cycles decode is idle
system.switch_cpus3.decode.blockedCycles   1131764699                       # Number of cycles decode is blocked
system.switch_cpus3.decode.runCycles         25403782                       # Number of cycles decode is running
system.switch_cpus3.decode.unblockCycles     20911934                       # Number of cycles decode is unblocking
system.switch_cpus3.decode.squashCycles         22743                       # Number of cycles decode is squashing
system.switch_cpus3.decode.branchResolved      6965727                       # Number of times decode resolved a  branch
system.switch_cpus3.decode.branchMispred         2140                       # Number of times decode detected a branch misprediction
system.switch_cpus3.decode.decodedInsts     350568037                       # Number of instructions handled by decode
system.switch_cpus3.decode.squashedInsts        10747                       # Number of squashed instructions handled by decode
system.switch_cpus3.dtb.rdAccesses           91614059                       # TLB accesses on read requests
system.switch_cpus3.dtb.wrAccesses           36757857                       # TLB accesses on write requests
system.switch_cpus3.dtb.rdMisses                55442                       # TLB misses on read requests
system.switch_cpus3.dtb.wrMisses                18826                       # TLB misses on write requests
system.switch_cpus3.dtb.walker.power_state.pwrStateResidencyTicks::UNDEFINED 16254709590762                       # Cumulative time (in ticks) in various power states
system.switch_cpus3.fetch.icacheStallCycles        73944                       # Number of cycles fetch is stalled on an Icache miss
system.switch_cpus3.fetch.insts             251090989                       # Number of instructions fetch has processed
system.switch_cpus3.fetch.branches           19662842                       # Number of branches that fetch encountered
system.switch_cpus3.fetch.predictedBranches     11496052                       # Number of branches that fetch has predicted taken
system.switch_cpus3.fetch.cycles           1186587781                       # Number of cycles fetch has run and was not squashing or blocked
system.switch_cpus3.fetch.squashCycles          49726                       # Number of cycles fetch has spent squashing
system.switch_cpus3.fetch.miscStallCycles            1                       # Number of cycles fetch has spent waiting on interrupts,or bad addresses, or out of MSHRs
system.switch_cpus3.fetch.pendingTrapStallCycles            1                       # Number of stall cycles due to pending traps
system.switch_cpus3.fetch.cacheLines         31001484                       # Number of cache lines fetched
system.switch_cpus3.fetch.icacheSquashes         1353                       # Number of outstanding Icache misses that were squashed
system.switch_cpus3.fetch.nisnDist::samples   1186686590                       # Number of instructions fetched each cycle (Total)
system.switch_cpus3.fetch.nisnDist::mean     0.295975                       # Number of instructions fetched each cycle (Total)
system.switch_cpus3.fetch.nisnDist::stdev     1.381075                       # Number of instructions fetched each cycle (Total)
system.switch_cpus3.fetch.nisnDist::underflows            0      0.00%      0.00% # Number of instructions fetched each cycle (Total)
system.switch_cpus3.fetch.nisnDist::0      1124166377     94.73%     94.73% # Number of instructions fetched each cycle (Total)
system.switch_cpus3.fetch.nisnDist::1         3909819      0.33%     95.06% # Number of instructions fetched each cycle (Total)
system.switch_cpus3.fetch.nisnDist::2         6372679      0.54%     95.60% # Number of instructions fetched each cycle (Total)
system.switch_cpus3.fetch.nisnDist::3         8228720      0.69%     96.29% # Number of instructions fetched each cycle (Total)
system.switch_cpus3.fetch.nisnDist::4         3529336      0.30%     96.59% # Number of instructions fetched each cycle (Total)
system.switch_cpus3.fetch.nisnDist::5         4674644      0.39%     96.98% # Number of instructions fetched each cycle (Total)
system.switch_cpus3.fetch.nisnDist::6         4865932      0.41%     97.39% # Number of instructions fetched each cycle (Total)
system.switch_cpus3.fetch.nisnDist::7         4311139      0.36%     97.76% # Number of instructions fetched each cycle (Total)
system.switch_cpus3.fetch.nisnDist::8        26627944      2.24%    100.00% # Number of instructions fetched each cycle (Total)
system.switch_cpus3.fetch.nisnDist::overflows            0      0.00%    100.00% # Number of instructions fetched each cycle (Total)
system.switch_cpus3.fetch.nisnDist::min_value            0                       # Number of instructions fetched each cycle (Total)
system.switch_cpus3.fetch.nisnDist::max_value            8                       # Number of instructions fetched each cycle (Total)
system.switch_cpus3.fetch.nisnDist::total   1186686590                       # Number of instructions fetched each cycle (Total)
system.switch_cpus3.fetch.branchRate         0.016564                       # Number of branch fetches per cycle
system.switch_cpus3.fetch.rate               0.211520                       # Number of inst fetches per cycle
system.switch_cpus3.itb.rdAccesses                  0                       # TLB accesses on read requests
system.switch_cpus3.itb.wrAccesses           31001485                       # TLB accesses on write requests
system.switch_cpus3.itb.rdMisses                    0                       # TLB misses on read requests
system.switch_cpus3.itb.wrMisses                  114                       # TLB misses on write requests
system.switch_cpus3.itb.walker.power_state.pwrStateResidencyTicks::UNDEFINED 16254709590762                       # Cumulative time (in ticks) in various power states
system.switch_cpus3.lsq0.forwLoads           16412473                       # Number of loads that had data forwarded from stores
system.switch_cpus3.lsq0.squashedLoads         203577                       # Number of loads squashed
system.switch_cpus3.lsq0.ignoredResponses          107                       # Number of memory responses ignored because the instruction is squashed
system.switch_cpus3.lsq0.memOrderViolation         2263                       # Number of memory ordering violations
system.switch_cpus3.lsq0.squashedStores         54418                       # Number of stores squashed
system.switch_cpus3.lsq0.rescheduledLoads           15                       # Number of loads that were rescheduled
system.switch_cpus3.lsq0.blockedByCache        735161                       # Number of times an access to memory failed due to the cache being blocked
system.switch_cpus3.power_state.pwrStateResidencyTicks::OFF 395296771536                       # Cumulative time (in ticks) in various power states
system.switch_cpus3.rename.squashCycles         22743                       # Number of cycles rename is squashing
system.switch_cpus3.rename.idleCycles        15974459                       # Number of cycles rename is idle
system.switch_cpus3.rename.blockCycles      595539875                       # Number of cycles rename is blocking
system.switch_cpus3.rename.serializeStallCycles            0                       # count of cycles rename stalledfor serializing inst
system.switch_cpus3.rename.runCycles         37737075                       # Number of cycles rename is running
system.switch_cpus3.rename.unblockCycles    537412431                       # Number of cycles rename is unblocking
system.switch_cpus3.rename.renamedInsts     350398115                       # Number of instructions processed by rename
system.switch_cpus3.rename.ROBFullEvents       597442                       # Number of times rename has blocked due to ROB full
system.switch_cpus3.rename.IQFullEvents       8389158                       # Number of times rename has blocked due to IQ full
system.switch_cpus3.rename.LQFullEvents      60027857                       # Number of times rename has blocked due to LQ full
system.switch_cpus3.rename.SQFullEvents     465045494                       # Number of times rename has blocked due to SQ full
system.switch_cpus3.rename.renamedOperands    343255671                       # Number of destination operands rename has renamed
system.switch_cpus3.rename.lookups          926554087                       # Number of register rename lookups that rename has made
system.switch_cpus3.rename.intLookups       380805264                       # Number of integer rename lookups
system.switch_cpus3.rename.fpLookups        296881134                       # Number of floating rename lookups
system.switch_cpus3.rename.committedMaps    342583589                       # Number of HB maps that are committed
system.switch_cpus3.rename.undoneMaps          672082                       # Number of HB maps that are undone due to squashing
system.switch_cpus3.rename.serializing              0                       # count of serializing insts renamed
system.switch_cpus3.rename.tempSerializing            0                       # count of temporary serializing insts renamed
system.switch_cpus3.rename.skidInsts        113592449                       # count of insts added to the skid buffer
system.switch_cpus3.rob.reads              1512771046                       # The number of ROB reads
system.switch_cpus3.rob.writes              700613445                       # The number of ROB writes
system.switch_cpus3.thread0.numInsts        249997899                       # Number of Instructions committed
system.switch_cpus3.thread0.numOps          349753972                       # Number of Ops committed
system.switch_cpus3.thread0.numMemRefs              0                       # Number of Memory References
system.voltage_domain.voltage                       1                       # Voltage in Volts

---------- End Simulation Statistics   ----------
