Command line:
./runscript_pride.sh mix10 AE.BASELINE.4C 4 2017
Global frequency set at 1000000000000 ticks per second
DRAM config: RowsPerBank: 65536, BanksPerRank: 32, RanksPerChannel: 1
warn: Sockets disabled, not accepting gdb connections
warn: CoherentXBar system.cpu0.mmucache.mmubus has no snooping ports attached!
warn: CoherentXBar system.cpu1.mmucache.mmubus has no snooping ports attached!
warn: CoherentXBar system.cpu2.mmucache.mmubus has no snooping ports attached!
warn: CoherentXBar system.cpu3.mmucache.mmubus has no snooping ports attached!
warn: Checkpoints for file descriptors currently do not work.
warn: Checkpoints for file descriptors currently do not work.
warn: Checkpoints for file descriptors currently do not work.
warn: Checkpoints for file descriptors currently do not work.
gem5 Simulator System.  http://gem5.org
gem5 is copyrighted software; use the --copyright option for details.

gem5 version 20.1.0.5
gem5 compiled Jul 12 2024 12:42:38
gem5 started Jul 31 2024 03:21:19
gem5 executing on a07dda8b130c, pid 225914
command line: /home/user/PrIDE/performance/gem5/build/X86/gem5.opt --outdir=/home/user/PrIDE/performance/gem5/stats/pride_multiprogram_16GBmem_250Mn.SPEC2017.C4/AE.BASELINE.4C/mix10 /home/user/PrIDE/performance/gem5/configs/example/se_rq_spec_config_multicore.py --redirects /lib64=/home/utils/gcc-6.2.0/lib64 --benchmark=mix10 --benchmark_stdout=/home/user/PrIDE/performance/gem5/stats/pride_multiprogram_16GBmem_250Mn.SPEC2017.C4/AE.BASELINE.4C/mix10/mix10.out --benchmark_stderr=/home/user/PrIDE/performance/gem5/stats/pride_multiprogram_16GBmem_250Mn.SPEC2017.C4/AE.BASELINE.4C/mix10/mix10.err --spec-version=2017 --num-cpus=4 --mem-size=16GB --mem-type=DDR5_2400_32x4 --mem-ranks=1 --mem-channels=1 --checkpoint-dir=/home/user/PrIDE/performance/gem5/cpts-DDR5/multiprogram_16GBmem_25Bn.SPEC2017.C4/mix10-1-ref-x86 --checkpoint-restore=25000000000 --at-instruction --cpu-type DerivO3CPU --caches --l2cache --l1d_size=32kB --l1i_size=32kB --l2_size=256kB --l3_size=4MB --l1d_assoc=8 --l1i_assoc=8 --l2_assoc=16 --l3_assoc=16 --cpu-clock=3GHz --sys-clock=3GHz --maxinsts=250000000 --prog-interval=300Hz

info: Standard input is not a terminal, disabling listeners.
Benchmark- 0   wrf
Selected benchmark
--> wrf
CMD: ['/opt/spec2017/benchspec/CPU/521.wrf_r/run/run_base_refrate_gem5_se-m64.0000/wrf_r_base.gem5_se-m64']
CWD: /opt/spec2017/benchspec/CPU/521.wrf_r/run/run_base_refrate_gem5_se-m64.0000/
Process stdout file: /home/user/PrIDE/performance/gem5/stats/pride_multiprogram_16GBmem_250Mn.SPEC2017.C4/AE.BASELINE.4C/mix10/mix10.out_0
Process stderr file: /home/user/PrIDE/performance/gem5/stats/pride_multiprogram_16GBmem_250Mn.SPEC2017.C4/AE.BASELINE.4C/mix10/mix10.err_0
Benchmark- 1   povray
Selected benchmark
--> povray
CMD: ['/opt/spec2017/benchspec/CPU/511.povray_r/run/run_base_refrate_gem5_se-m64.0000/povray_r_base.gem5_se-m64', '/opt/spec2017/benchspec/CPU/511.povray_r/run/run_base_refrate_gem5_se-m64.0000/SPEC-benchmark-ref.ini']
CWD: /opt/spec2017/benchspec/CPU/511.povray_r/run/run_base_refrate_gem5_se-m64.0000/
Process stdout file: /home/user/PrIDE/performance/gem5/stats/pride_multiprogram_16GBmem_250Mn.SPEC2017.C4/AE.BASELINE.4C/mix10/mix10.out_1
Process stderr file: /home/user/PrIDE/performance/gem5/stats/pride_multiprogram_16GBmem_250Mn.SPEC2017.C4/AE.BASELINE.4C/mix10/mix10.err_1
Benchmark- 2   mcf
Selected benchmark
--> mcf
CMD: ['/opt/spec2017/benchspec/CPU/505.mcf_r/run/run_base_refrate_gem5_se-m64.0000/mcf_r_base.gem5_se-m64', '/opt/spec2017/benchspec/CPU/505.mcf_r/run/run_base_refrate_gem5_se-m64.0000/inp.in']
CWD: /opt/spec2017/benchspec/CPU/505.mcf_r/run/run_base_refrate_gem5_se-m64.0000/
Process stdout file: /home/user/PrIDE/performance/gem5/stats/pride_multiprogram_16GBmem_250Mn.SPEC2017.C4/AE.BASELINE.4C/mix10/mix10.out_2
Process stderr file: /home/user/PrIDE/performance/gem5/stats/pride_multiprogram_16GBmem_250Mn.SPEC2017.C4/AE.BASELINE.4C/mix10/mix10.err_2
Benchmark- 3   nab
Selected benchmark
--> nab
CMD: ['/opt/spec2017/benchspec/CPU/544.nab_r/run/run_base_refrate_gem5_se-m64.0000/nab_r_base.gem5_se-m64', '1am0', '1122214447', '122']
CWD: /opt/spec2017/benchspec/CPU/544.nab_r/run/run_base_refrate_gem5_se-m64.0000/
Process stdout file: /home/user/PrIDE/performance/gem5/stats/pride_multiprogram_16GBmem_250Mn.SPEC2017.C4/AE.BASELINE.4C/mix10/mix10.out_3
Process stderr file: /home/user/PrIDE/performance/gem5/stats/pride_multiprogram_16GBmem_250Mn.SPEC2017.C4/AE.BASELINE.4C/mix10/mix10.err_3
Workload-0: 
['/opt/spec2017/benchspec/CPU/521.wrf_r/run/run_base_refrate_gem5_se-m64.0000/wrf_r_base.gem5_se-m64']
Workload-1: 
['/opt/spec2017/benchspec/CPU/511.povray_r/run/run_base_refrate_gem5_se-m64.0000/povray_r_base.gem5_se-m64', '/opt/spec2017/benchspec/CPU/511.povray_r/run/run_base_refrate_gem5_se-m64.0000/SPEC-benchmark-ref.ini']
Workload-2: 
['/opt/spec2017/benchspec/CPU/505.mcf_r/run/run_base_refrate_gem5_se-m64.0000/mcf_r_base.gem5_se-m64', '/opt/spec2017/benchspec/CPU/505.mcf_r/run/run_base_refrate_gem5_se-m64.0000/inp.in']
Workload-3: 
['/opt/spec2017/benchspec/CPU/544.nab_r/run/run_base_refrate_gem5_se-m64.0000/nab_r_base.gem5_se-m64', '1am0', '1122214447', '122']
defense_enable:  False  detector:  MG  mitigation:  RRS  threshold:  800
mg_entries:  1700
rrs_tuples:  3400 rrs_swap_delay:  2740ns rit_acc_delay:  1.25ns
Switch at curTick count:10000
warn: membus.master is deprecated. `master` is now called `mem_side_ports`
warn: No dot file generated. Please install pydot to generate the dot file and pdf.
info: Entering event queue @ 16815150906111.  Starting simulation...
info: Entering event queue @ 16815150916111.  Starting simulation...
warn: PowerState: Already in the requested power state, request ignored
Switched CPUS @ tick 16815150916111
switching cpus
**** REAL SIMULATION ****
info: Entering event queue @ 16815150916434.  Starting simulation...
warn: MOVNTDQ: Ignoring non-temporal hint, modeling as cacheable!
16818484239444: Event_285: system.switch_cpus3 progress event, total committed:28317922, progress insts committed: 28317922, IPC: 02.82896
16818484239444: Event_284: system.switch_cpus2 progress event, total committed:11645422, progress insts committed: 11645422, IPC: 01.16338
16818484239444: Event_283: system.switch_cpus1 progress event, total committed:44459653, progress insts committed: 44459653, IPC: 04.44152
16818484239444: Event_282: system.switch_cpus0 progress event, total committed:36787261, progress insts committed: 36787261, IPC: 03.67505
16821817572777: Event_282: system.switch_cpus0 progress event, total committed:74132747, progress insts committed: 37345486, IPC: 03.73081
16821817572777: Event_283: system.switch_cpus1 progress event, total committed:89621044, progress insts committed: 45161391, IPC: 04.51162
16821817572777: Event_284: system.switch_cpus2 progress event, total committed:23990385, progress insts committed: 12344963, IPC: 01.23326
16821817572777: Event_285: system.switch_cpus3 progress event, total committed:57663829, progress insts committed: 29345907, IPC: 02.93166
16825150906110: Event_285: system.switch_cpus3 progress event, total committed:86940872, progress insts committed: 29277043, IPC: 02.92478
16825150906110: Event_284: system.switch_cpus2 progress event, total committed:36730242, progress insts committed: 12739857, IPC: 01.27271
16825150906110: Event_283: system.switch_cpus1 progress event, total committed:134814943, progress insts committed: 45193899, IPC: 04.51487
16825150906110: Event_282: system.switch_cpus0 progress event, total committed:111585054, progress insts committed: 37452307, IPC: 03.74149
16828484239443: Event_282: system.switch_cpus0 progress event, total committed:149303839, progress insts committed: 37718785, IPC: 03.76811
16828484239443: Event_283: system.switch_cpus1 progress event, total committed:180065867, progress insts committed: 45250924, IPC: 04.52057
16828484239443: Event_284: system.switch_cpus2 progress event, total committed:49567628, progress insts committed: 12837386, IPC: 01.28245
16828484239443: Event_285: system.switch_cpus3 progress event, total committed:116402978, progress insts committed: 29462106, IPC: 02.94326
16831817572776: Event_285: system.switch_cpus3 progress event, total committed:145832273, progress insts committed: 29429295, IPC: 02.93999
16831817572776: Event_284: system.switch_cpus2 progress event, total committed:61706327, progress insts committed: 12138699, IPC: 01.21266
16831817572776: Event_283: system.switch_cpus1 progress event, total committed:225326452, progress insts committed: 45260585, IPC: 04.52153
16831817572776: Event_282: system.switch_cpus0 progress event, total committed:178035574, progress insts committed: 28731735, IPC: 002.8703
16835150906109: Event_282: system.switch_cpus0 progress event, total committed:201260985, progress insts committed: 23225411, IPC: 02.32022
16835150906109: Event_283: system.switch_cpus1 progress event, total committed:270870033, progress insts committed: 45543581, IPC: 004.5498
16835150906109: Event_284: system.switch_cpus2 progress event, total committed:74112637, progress insts committed: 12406310, IPC: 01.23939
16835150906109: Event_285: system.switch_cpus3 progress event, total committed:175052904, progress insts committed: 29220631, IPC: 02.91914
16838484239442: Event_285: system.switch_cpus3 progress event, total committed:203868474, progress insts committed: 28815570, IPC: 02.87868
16838484239442: Event_284: system.switch_cpus2 progress event, total committed:86575232, progress insts committed: 12462595, IPC: 01.24501
16838484239442: Event_283: system.switch_cpus1 progress event, total committed:316751796, progress insts committed: 45881763, IPC: 04.58359
16838484239442: Event_282: system.switch_cpus0 progress event, total committed:223359337, progress insts committed: 22098352, IPC: 02.20763
16841817572775: Event_282: system.switch_cpus0 progress event, total committed:226157291, progress insts committed: 2797954, IPC: 0.279516
16841817572775: Event_283: system.switch_cpus1 progress event, total committed:360877786, progress insts committed: 44125990, IPC: 04.40819
16841817572775: Event_284: system.switch_cpus2 progress event, total committed:98382208, progress insts committed: 11806976, IPC: 01.17952
16841817572775: Event_285: system.switch_cpus3 progress event, total committed:232286414, progress insts committed: 28417940, IPC: 02.83895
16845150906108: Event_285: system.switch_cpus3 progress event, total committed:260033294, progress insts committed: 27746880, IPC: 02.77191
16845150906108: Event_284: system.switch_cpus2 progress event, total committed:109408535, progress insts committed: 11026327, IPC: 01.10153
16845150906108: Event_283: system.switch_cpus1 progress event, total committed:405912481, progress insts committed: 45034695, IPC: 04.49897
16845150906108: Event_282: system.switch_cpus0 progress event, total committed:228114089, progress insts committed: 1956798, IPC: 0.195484
Exiting @ tick 16848449478873 because a thread reached the max instruction count
