
---------- Begin Simulation Statistics ----------
final_tick                               16848450475542                       # Number of ticks from beginning of simulation (restored from checkpoints and never reset)
host_inst_rate                                 157594                       # Simulator instruction rate (inst/s)
host_mem_usage                               17214620                       # Number of bytes of host memory used
host_op_rate                                   269970                       # Simulator op (including micro ops) rate (op/s)
host_seconds                                  4035.15                       # Real time elapsed on the host
host_tick_rate                                8252385                       # Simulator tick rate (ticks/s)
sim_freq                                 1000000000000                       # Frequency of simulated ticks
sim_insts                                   635915148                       # Number of instructions simulated
sim_ops                                    1089368346                       # Number of ops (including micro ops) simulated
sim_seconds                                  0.033300                       # Number of seconds simulated
sim_ticks                                 33299607060                       # Number of ticks simulated
system.cpu0.Branches                                1                       # Number of branches fetched
system.cpu0.committedInsts                         13                       # Number of instructions committed
system.cpu0.committedOps                           22                       # Number of ops (including micro ops) committed
system.cpu0.idle_fraction                           0                       # Percentage of idle cycles
system.cpu0.l2bus.snoop_filter.hit_multi_requests          590                       # Number of requests hitting in the snoop filter with multiple (>1) holders of the requested data.
system.cpu0.l2bus.snoop_filter.hit_multi_snoops            0                       # Number of snoops hitting in the snoop filter with multiple (>1) holders of the requested data.
system.cpu0.l2bus.snoop_filter.hit_single_requests      1455502                       # Number of requests hitting in the snoop filter with a single holder of the requested data.
system.cpu0.l2bus.snoop_filter.hit_single_snoops         2247                       # Number of snoops hitting in the snoop filter with a single holder of the requested data.
system.cpu0.l2bus.snoop_filter.tot_requests      2911971                       # Total number of requests made to the snoop filter.
system.cpu0.l2bus.snoop_filter.tot_snoops         2247                       # Total number of snoops made to the snoop filter.
system.cpu0.mmucache.mmubus.snoop_filter.hit_multi_requests            0                       # Number of requests hitting in the snoop filter with multiple (>1) holders of the requested data.
system.cpu0.mmucache.mmubus.snoop_filter.hit_multi_snoops            0                       # Number of snoops hitting in the snoop filter with multiple (>1) holders of the requested data.
system.cpu0.mmucache.mmubus.snoop_filter.hit_single_requests            0                       # Number of requests hitting in the snoop filter with a single holder of the requested data.
system.cpu0.mmucache.mmubus.snoop_filter.hit_single_snoops            0                       # Number of snoops hitting in the snoop filter with a single holder of the requested data.
system.cpu0.mmucache.mmubus.snoop_filter.tot_requests            0                       # Total number of requests made to the snoop filter.
system.cpu0.mmucache.mmubus.snoop_filter.tot_snoops            0                       # Total number of snoops made to the snoop filter.
system.cpu0.not_idle_fraction                       1                       # Percentage of non-idle cycles
system.cpu0.numCycles                              30                       # number of cpu cycles simulated
system.cpu0.numWorkItemsCompleted                   0                       # number of work items this cpu completed
system.cpu0.numWorkItemsStarted                     0                       # number of work items this cpu started
system.cpu0.num_busy_cycles                        30                       # Number of busy cycles
system.cpu0.num_cc_register_reads                   6                       # number of times the CC registers were read
system.cpu0.num_cc_register_writes                  4                       # number of times the CC registers were written
system.cpu0.num_conditional_control_insts            1                       # number of instructions that are conditional controls
system.cpu0.num_fp_alu_accesses                    13                       # Number of float alu accesses
system.cpu0.num_fp_insts                           13                       # number of float instructions
system.cpu0.num_fp_register_reads                  25                       # number of times the floating registers were read
system.cpu0.num_fp_register_writes                 12                       # number of times the floating registers were written
system.cpu0.num_func_calls                          0                       # number of times a function call or return occured
system.cpu0.num_idle_cycles                         0                       # Number of idle cycles
system.cpu0.num_int_alu_accesses                   13                       # Number of integer alu accesses
system.cpu0.num_int_insts                          13                       # number of integer instructions
system.cpu0.num_int_register_reads                 23                       # number of times the integer registers were read
system.cpu0.num_int_register_writes                 9                       # number of times the integer registers were written
system.cpu0.num_load_insts                          3                       # Number of load instructions
system.cpu0.num_mem_refs                            3                       # number of memory refs
system.cpu0.num_store_insts                         0                       # Number of store instructions
system.cpu0.num_vec_alu_accesses                    0                       # Number of vector alu accesses
system.cpu0.num_vec_insts                           0                       # number of vector instructions
system.cpu0.num_vec_register_reads                  0                       # number of times the vector registers were read
system.cpu0.num_vec_register_writes                 0                       # number of times the vector registers were written
system.cpu0.op_class::No_OpClass                    0      0.00%      0.00% # Class of executed instruction
system.cpu0.op_class::IntAlu                        9     40.91%     40.91% # Class of executed instruction
system.cpu0.op_class::IntMult                       0      0.00%     40.91% # Class of executed instruction
system.cpu0.op_class::IntDiv                        0      0.00%     40.91% # Class of executed instruction
system.cpu0.op_class::FloatAdd                      1      4.55%     45.45% # Class of executed instruction
system.cpu0.op_class::FloatCmp                      0      0.00%     45.45% # Class of executed instruction
system.cpu0.op_class::FloatCvt                      0      0.00%     45.45% # Class of executed instruction
system.cpu0.op_class::FloatMult                     0      0.00%     45.45% # Class of executed instruction
system.cpu0.op_class::FloatMultAcc                  0      0.00%     45.45% # Class of executed instruction
system.cpu0.op_class::FloatDiv                      0      0.00%     45.45% # Class of executed instruction
system.cpu0.op_class::FloatMisc                     0      0.00%     45.45% # Class of executed instruction
system.cpu0.op_class::FloatSqrt                     0      0.00%     45.45% # Class of executed instruction
system.cpu0.op_class::SimdAdd                       0      0.00%     45.45% # Class of executed instruction
system.cpu0.op_class::SimdAddAcc                    0      0.00%     45.45% # Class of executed instruction
system.cpu0.op_class::SimdAlu                       0      0.00%     45.45% # Class of executed instruction
system.cpu0.op_class::SimdCmp                       0      0.00%     45.45% # Class of executed instruction
system.cpu0.op_class::SimdCvt                       0      0.00%     45.45% # Class of executed instruction
system.cpu0.op_class::SimdMisc                      1      4.55%     50.00% # Class of executed instruction
system.cpu0.op_class::SimdMult                      0      0.00%     50.00% # Class of executed instruction
system.cpu0.op_class::SimdMultAcc                   0      0.00%     50.00% # Class of executed instruction
system.cpu0.op_class::SimdShift                     0      0.00%     50.00% # Class of executed instruction
system.cpu0.op_class::SimdShiftAcc                  0      0.00%     50.00% # Class of executed instruction
system.cpu0.op_class::SimdDiv                       0      0.00%     50.00% # Class of executed instruction
system.cpu0.op_class::SimdSqrt                      0      0.00%     50.00% # Class of executed instruction
system.cpu0.op_class::SimdFloatAdd                  4     18.18%     68.18% # Class of executed instruction
system.cpu0.op_class::SimdFloatAlu                  0      0.00%     68.18% # Class of executed instruction
system.cpu0.op_class::SimdFloatCmp                  0      0.00%     68.18% # Class of executed instruction
system.cpu0.op_class::SimdFloatCvt                  0      0.00%     68.18% # Class of executed instruction
system.cpu0.op_class::SimdFloatDiv                  0      0.00%     68.18% # Class of executed instruction
system.cpu0.op_class::SimdFloatMisc                 0      0.00%     68.18% # Class of executed instruction
system.cpu0.op_class::SimdFloatMult                 4     18.18%     86.36% # Class of executed instruction
system.cpu0.op_class::SimdFloatMultAcc              0      0.00%     86.36% # Class of executed instruction
system.cpu0.op_class::SimdFloatSqrt                 0      0.00%     86.36% # Class of executed instruction
system.cpu0.op_class::SimdReduceAdd                 0      0.00%     86.36% # Class of executed instruction
system.cpu0.op_class::SimdReduceAlu                 0      0.00%     86.36% # Class of executed instruction
system.cpu0.op_class::SimdReduceCmp                 0      0.00%     86.36% # Class of executed instruction
system.cpu0.op_class::SimdFloatReduceAdd            0      0.00%     86.36% # Class of executed instruction
system.cpu0.op_class::SimdFloatReduceCmp            0      0.00%     86.36% # Class of executed instruction
system.cpu0.op_class::SimdAes                       0      0.00%     86.36% # Class of executed instruction
system.cpu0.op_class::SimdAesMix                    0      0.00%     86.36% # Class of executed instruction
system.cpu0.op_class::SimdSha1Hash                  0      0.00%     86.36% # Class of executed instruction
system.cpu0.op_class::SimdSha1Hash2                 0      0.00%     86.36% # Class of executed instruction
system.cpu0.op_class::SimdSha256Hash                0      0.00%     86.36% # Class of executed instruction
system.cpu0.op_class::SimdSha256Hash2               0      0.00%     86.36% # Class of executed instruction
system.cpu0.op_class::SimdShaSigma2                 0      0.00%     86.36% # Class of executed instruction
system.cpu0.op_class::SimdShaSigma3                 0      0.00%     86.36% # Class of executed instruction
system.cpu0.op_class::SimdPredAlu                   0      0.00%     86.36% # Class of executed instruction
system.cpu0.op_class::MemRead                       0      0.00%     86.36% # Class of executed instruction
system.cpu0.op_class::MemWrite                      0      0.00%     86.36% # Class of executed instruction
system.cpu0.op_class::FloatMemRead                  3     13.64%    100.00% # Class of executed instruction
system.cpu0.op_class::FloatMemWrite                 0      0.00%    100.00% # Class of executed instruction
system.cpu0.op_class::IprAccess                     0      0.00%    100.00% # Class of executed instruction
system.cpu0.op_class::InstPrefetch                  0      0.00%    100.00% # Class of executed instruction
system.cpu0.op_class::total                        22                       # Class of executed instruction
system.cpu0.workload.numSyscalls                    0                       # Number of system calls
system.cpu1.Branches                                1                       # Number of branches fetched
system.cpu1.committedInsts                         14                       # Number of instructions committed
system.cpu1.committedOps                           22                       # Number of ops (including micro ops) committed
system.cpu1.idle_fraction                           0                       # Percentage of idle cycles
system.cpu1.l2bus.snoop_filter.hit_multi_requests        30449                       # Number of requests hitting in the snoop filter with multiple (>1) holders of the requested data.
system.cpu1.l2bus.snoop_filter.hit_multi_snoops            0                       # Number of snoops hitting in the snoop filter with multiple (>1) holders of the requested data.
system.cpu1.l2bus.snoop_filter.hit_single_requests      1743651                       # Number of requests hitting in the snoop filter with a single holder of the requested data.
system.cpu1.l2bus.snoop_filter.hit_single_snoops            0                       # Number of snoops hitting in the snoop filter with a single holder of the requested data.
system.cpu1.l2bus.snoop_filter.tot_requests      3488293                       # Total number of requests made to the snoop filter.
system.cpu1.l2bus.snoop_filter.tot_snoops            0                       # Total number of snoops made to the snoop filter.
system.cpu1.mmucache.mmubus.snoop_filter.hit_multi_requests            0                       # Number of requests hitting in the snoop filter with multiple (>1) holders of the requested data.
system.cpu1.mmucache.mmubus.snoop_filter.hit_multi_snoops            0                       # Number of snoops hitting in the snoop filter with multiple (>1) holders of the requested data.
system.cpu1.mmucache.mmubus.snoop_filter.hit_single_requests            0                       # Number of requests hitting in the snoop filter with a single holder of the requested data.
system.cpu1.mmucache.mmubus.snoop_filter.hit_single_snoops            0                       # Number of snoops hitting in the snoop filter with a single holder of the requested data.
system.cpu1.mmucache.mmubus.snoop_filter.tot_requests            0                       # Total number of requests made to the snoop filter.
system.cpu1.mmucache.mmubus.snoop_filter.tot_snoops            0                       # Total number of snoops made to the snoop filter.
system.cpu1.not_idle_fraction                       1                       # Percentage of non-idle cycles
system.cpu1.numCycles                              30                       # number of cpu cycles simulated
system.cpu1.numWorkItemsCompleted                   0                       # number of work items this cpu completed
system.cpu1.numWorkItemsStarted                     0                       # number of work items this cpu started
system.cpu1.num_busy_cycles                        30                       # Number of busy cycles
system.cpu1.num_cc_register_reads                  13                       # number of times the CC registers were read
system.cpu1.num_cc_register_writes                  4                       # number of times the CC registers were written
system.cpu1.num_conditional_control_insts            0                       # number of instructions that are conditional controls
system.cpu1.num_fp_alu_accesses                    15                       # Number of float alu accesses
system.cpu1.num_fp_insts                           15                       # number of float instructions
system.cpu1.num_fp_register_reads                  20                       # number of times the floating registers were read
system.cpu1.num_fp_register_writes                 14                       # number of times the floating registers were written
system.cpu1.num_func_calls                          0                       # number of times a function call or return occured
system.cpu1.num_idle_cycles                         0                       # Number of idle cycles
system.cpu1.num_int_alu_accesses                   15                       # Number of integer alu accesses
system.cpu1.num_int_insts                          15                       # number of integer instructions
system.cpu1.num_int_register_reads                 35                       # number of times the integer registers were read
system.cpu1.num_int_register_writes                 6                       # number of times the integer registers were written
system.cpu1.num_load_insts                          8                       # Number of load instructions
system.cpu1.num_mem_refs                            8                       # number of memory refs
system.cpu1.num_store_insts                         0                       # Number of store instructions
system.cpu1.num_vec_alu_accesses                    0                       # Number of vector alu accesses
system.cpu1.num_vec_insts                           0                       # number of vector instructions
system.cpu1.num_vec_register_reads                  0                       # number of times the vector registers were read
system.cpu1.num_vec_register_writes                 0                       # number of times the vector registers were written
system.cpu1.op_class::No_OpClass                    0      0.00%      0.00% # Class of executed instruction
system.cpu1.op_class::IntAlu                        7     31.82%     31.82% # Class of executed instruction
system.cpu1.op_class::IntMult                       0      0.00%     31.82% # Class of executed instruction
system.cpu1.op_class::IntDiv                        0      0.00%     31.82% # Class of executed instruction
system.cpu1.op_class::FloatAdd                      0      0.00%     31.82% # Class of executed instruction
system.cpu1.op_class::FloatCmp                      0      0.00%     31.82% # Class of executed instruction
system.cpu1.op_class::FloatCvt                      0      0.00%     31.82% # Class of executed instruction
system.cpu1.op_class::FloatMult                     0      0.00%     31.82% # Class of executed instruction
system.cpu1.op_class::FloatMultAcc                  0      0.00%     31.82% # Class of executed instruction
system.cpu1.op_class::FloatDiv                      0      0.00%     31.82% # Class of executed instruction
system.cpu1.op_class::FloatMisc                     0      0.00%     31.82% # Class of executed instruction
system.cpu1.op_class::FloatSqrt                     0      0.00%     31.82% # Class of executed instruction
system.cpu1.op_class::SimdAdd                       0      0.00%     31.82% # Class of executed instruction
system.cpu1.op_class::SimdAddAcc                    0      0.00%     31.82% # Class of executed instruction
system.cpu1.op_class::SimdAlu                       0      0.00%     31.82% # Class of executed instruction
system.cpu1.op_class::SimdCmp                       0      0.00%     31.82% # Class of executed instruction
system.cpu1.op_class::SimdCvt                       0      0.00%     31.82% # Class of executed instruction
system.cpu1.op_class::SimdMisc                      0      0.00%     31.82% # Class of executed instruction
system.cpu1.op_class::SimdMult                      0      0.00%     31.82% # Class of executed instruction
system.cpu1.op_class::SimdMultAcc                   0      0.00%     31.82% # Class of executed instruction
system.cpu1.op_class::SimdShift                     0      0.00%     31.82% # Class of executed instruction
system.cpu1.op_class::SimdShiftAcc                  0      0.00%     31.82% # Class of executed instruction
system.cpu1.op_class::SimdDiv                       0      0.00%     31.82% # Class of executed instruction
system.cpu1.op_class::SimdSqrt                      0      0.00%     31.82% # Class of executed instruction
system.cpu1.op_class::SimdFloatAdd                  3     13.64%     45.45% # Class of executed instruction
system.cpu1.op_class::SimdFloatAlu                  0      0.00%     45.45% # Class of executed instruction
system.cpu1.op_class::SimdFloatCmp                  0      0.00%     45.45% # Class of executed instruction
system.cpu1.op_class::SimdFloatCvt                  1      4.55%     50.00% # Class of executed instruction
system.cpu1.op_class::SimdFloatDiv                  0      0.00%     50.00% # Class of executed instruction
system.cpu1.op_class::SimdFloatMisc                 0      0.00%     50.00% # Class of executed instruction
system.cpu1.op_class::SimdFloatMult                 3     13.64%     63.64% # Class of executed instruction
system.cpu1.op_class::SimdFloatMultAcc              0      0.00%     63.64% # Class of executed instruction
system.cpu1.op_class::SimdFloatSqrt                 0      0.00%     63.64% # Class of executed instruction
system.cpu1.op_class::SimdReduceAdd                 0      0.00%     63.64% # Class of executed instruction
system.cpu1.op_class::SimdReduceAlu                 0      0.00%     63.64% # Class of executed instruction
system.cpu1.op_class::SimdReduceCmp                 0      0.00%     63.64% # Class of executed instruction
system.cpu1.op_class::SimdFloatReduceAdd            0      0.00%     63.64% # Class of executed instruction
system.cpu1.op_class::SimdFloatReduceCmp            0      0.00%     63.64% # Class of executed instruction
system.cpu1.op_class::SimdAes                       0      0.00%     63.64% # Class of executed instruction
system.cpu1.op_class::SimdAesMix                    0      0.00%     63.64% # Class of executed instruction
system.cpu1.op_class::SimdSha1Hash                  0      0.00%     63.64% # Class of executed instruction
system.cpu1.op_class::SimdSha1Hash2                 0      0.00%     63.64% # Class of executed instruction
system.cpu1.op_class::SimdSha256Hash                0      0.00%     63.64% # Class of executed instruction
system.cpu1.op_class::SimdSha256Hash2               0      0.00%     63.64% # Class of executed instruction
system.cpu1.op_class::SimdShaSigma2                 0      0.00%     63.64% # Class of executed instruction
system.cpu1.op_class::SimdShaSigma3                 0      0.00%     63.64% # Class of executed instruction
system.cpu1.op_class::SimdPredAlu                   0      0.00%     63.64% # Class of executed instruction
system.cpu1.op_class::MemRead                       0      0.00%     63.64% # Class of executed instruction
system.cpu1.op_class::MemWrite                      0      0.00%     63.64% # Class of executed instruction
system.cpu1.op_class::FloatMemRead                  8     36.36%    100.00% # Class of executed instruction
system.cpu1.op_class::FloatMemWrite                 0      0.00%    100.00% # Class of executed instruction
system.cpu1.op_class::IprAccess                     0      0.00%    100.00% # Class of executed instruction
system.cpu1.op_class::InstPrefetch                  0      0.00%    100.00% # Class of executed instruction
system.cpu1.op_class::total                        22                       # Class of executed instruction
system.cpu1.workload.numSyscalls                    2                       # Number of system calls
system.cpu2.Branches                                2                       # Number of branches fetched
system.cpu2.committedInsts                         19                       # Number of instructions committed
system.cpu2.committedOps                           25                       # Number of ops (including micro ops) committed
system.cpu2.idle_fraction                           0                       # Percentage of idle cycles
system.cpu2.l2bus.snoop_filter.hit_multi_requests           94                       # Number of requests hitting in the snoop filter with multiple (>1) holders of the requested data.
system.cpu2.l2bus.snoop_filter.hit_multi_snoops            0                       # Number of snoops hitting in the snoop filter with multiple (>1) holders of the requested data.
system.cpu2.l2bus.snoop_filter.hit_single_requests      2409055                       # Number of requests hitting in the snoop filter with a single holder of the requested data.
system.cpu2.l2bus.snoop_filter.hit_single_snoops          321                       # Number of snoops hitting in the snoop filter with a single holder of the requested data.
system.cpu2.l2bus.snoop_filter.tot_requests      4802962                       # Total number of requests made to the snoop filter.
system.cpu2.l2bus.snoop_filter.tot_snoops          321                       # Total number of snoops made to the snoop filter.
system.cpu2.mmucache.mmubus.snoop_filter.hit_multi_requests            0                       # Number of requests hitting in the snoop filter with multiple (>1) holders of the requested data.
system.cpu2.mmucache.mmubus.snoop_filter.hit_multi_snoops            0                       # Number of snoops hitting in the snoop filter with multiple (>1) holders of the requested data.
system.cpu2.mmucache.mmubus.snoop_filter.hit_single_requests            0                       # Number of requests hitting in the snoop filter with a single holder of the requested data.
system.cpu2.mmucache.mmubus.snoop_filter.hit_single_snoops            0                       # Number of snoops hitting in the snoop filter with a single holder of the requested data.
system.cpu2.mmucache.mmubus.snoop_filter.tot_requests            0                       # Total number of requests made to the snoop filter.
system.cpu2.mmucache.mmubus.snoop_filter.tot_snoops            0                       # Total number of snoops made to the snoop filter.
system.cpu2.not_idle_fraction                       1                       # Percentage of non-idle cycles
system.cpu2.numCycles                              30                       # number of cpu cycles simulated
system.cpu2.numWorkItemsCompleted                   0                       # number of work items this cpu completed
system.cpu2.numWorkItemsStarted                     0                       # number of work items this cpu started
system.cpu2.num_busy_cycles                        30                       # Number of busy cycles
system.cpu2.num_cc_register_reads                  13                       # number of times the CC registers were read
system.cpu2.num_cc_register_writes                 12                       # number of times the CC registers were written
system.cpu2.num_conditional_control_insts            2                       # number of instructions that are conditional controls
system.cpu2.num_fp_alu_accesses                     0                       # Number of float alu accesses
system.cpu2.num_fp_insts                            0                       # number of float instructions
system.cpu2.num_fp_register_reads                   0                       # number of times the floating registers were read
system.cpu2.num_fp_register_writes                  0                       # number of times the floating registers were written
system.cpu2.num_func_calls                          0                       # number of times a function call or return occured
system.cpu2.num_idle_cycles                         0                       # Number of idle cycles
system.cpu2.num_int_alu_accesses                   25                       # Number of integer alu accesses
system.cpu2.num_int_insts                          25                       # number of integer instructions
system.cpu2.num_int_register_reads                 59                       # number of times the integer registers were read
system.cpu2.num_int_register_writes                20                       # number of times the integer registers were written
system.cpu2.num_load_insts                          7                       # Number of load instructions
system.cpu2.num_mem_refs                           10                       # number of memory refs
system.cpu2.num_store_insts                         3                       # Number of store instructions
system.cpu2.num_vec_alu_accesses                    0                       # Number of vector alu accesses
system.cpu2.num_vec_insts                           0                       # number of vector instructions
system.cpu2.num_vec_register_reads                  0                       # number of times the vector registers were read
system.cpu2.num_vec_register_writes                 0                       # number of times the vector registers were written
system.cpu2.op_class::No_OpClass                    0      0.00%      0.00% # Class of executed instruction
system.cpu2.op_class::IntAlu                       15     60.00%     60.00% # Class of executed instruction
system.cpu2.op_class::IntMult                       0      0.00%     60.00% # Class of executed instruction
system.cpu2.op_class::IntDiv                        0      0.00%     60.00% # Class of executed instruction
system.cpu2.op_class::FloatAdd                      0      0.00%     60.00% # Class of executed instruction
system.cpu2.op_class::FloatCmp                      0      0.00%     60.00% # Class of executed instruction
system.cpu2.op_class::FloatCvt                      0      0.00%     60.00% # Class of executed instruction
system.cpu2.op_class::FloatMult                     0      0.00%     60.00% # Class of executed instruction
system.cpu2.op_class::FloatMultAcc                  0      0.00%     60.00% # Class of executed instruction
system.cpu2.op_class::FloatDiv                      0      0.00%     60.00% # Class of executed instruction
system.cpu2.op_class::FloatMisc                     0      0.00%     60.00% # Class of executed instruction
system.cpu2.op_class::FloatSqrt                     0      0.00%     60.00% # Class of executed instruction
system.cpu2.op_class::SimdAdd                       0      0.00%     60.00% # Class of executed instruction
system.cpu2.op_class::SimdAddAcc                    0      0.00%     60.00% # Class of executed instruction
system.cpu2.op_class::SimdAlu                       0      0.00%     60.00% # Class of executed instruction
system.cpu2.op_class::SimdCmp                       0      0.00%     60.00% # Class of executed instruction
system.cpu2.op_class::SimdCvt                       0      0.00%     60.00% # Class of executed instruction
system.cpu2.op_class::SimdMisc                      0      0.00%     60.00% # Class of executed instruction
system.cpu2.op_class::SimdMult                      0      0.00%     60.00% # Class of executed instruction
system.cpu2.op_class::SimdMultAcc                   0      0.00%     60.00% # Class of executed instruction
system.cpu2.op_class::SimdShift                     0      0.00%     60.00% # Class of executed instruction
system.cpu2.op_class::SimdShiftAcc                  0      0.00%     60.00% # Class of executed instruction
system.cpu2.op_class::SimdDiv                       0      0.00%     60.00% # Class of executed instruction
system.cpu2.op_class::SimdSqrt                      0      0.00%     60.00% # Class of executed instruction
system.cpu2.op_class::SimdFloatAdd                  0      0.00%     60.00% # Class of executed instruction
system.cpu2.op_class::SimdFloatAlu                  0      0.00%     60.00% # Class of executed instruction
system.cpu2.op_class::SimdFloatCmp                  0      0.00%     60.00% # Class of executed instruction
system.cpu2.op_class::SimdFloatCvt                  0      0.00%     60.00% # Class of executed instruction
system.cpu2.op_class::SimdFloatDiv                  0      0.00%     60.00% # Class of executed instruction
system.cpu2.op_class::SimdFloatMisc                 0      0.00%     60.00% # Class of executed instruction
system.cpu2.op_class::SimdFloatMult                 0      0.00%     60.00% # Class of executed instruction
system.cpu2.op_class::SimdFloatMultAcc              0      0.00%     60.00% # Class of executed instruction
system.cpu2.op_class::SimdFloatSqrt                 0      0.00%     60.00% # Class of executed instruction
system.cpu2.op_class::SimdReduceAdd                 0      0.00%     60.00% # Class of executed instruction
system.cpu2.op_class::SimdReduceAlu                 0      0.00%     60.00% # Class of executed instruction
system.cpu2.op_class::SimdReduceCmp                 0      0.00%     60.00% # Class of executed instruction
system.cpu2.op_class::SimdFloatReduceAdd            0      0.00%     60.00% # Class of executed instruction
system.cpu2.op_class::SimdFloatReduceCmp            0      0.00%     60.00% # Class of executed instruction
system.cpu2.op_class::SimdAes                       0      0.00%     60.00% # Class of executed instruction
system.cpu2.op_class::SimdAesMix                    0      0.00%     60.00% # Class of executed instruction
system.cpu2.op_class::SimdSha1Hash                  0      0.00%     60.00% # Class of executed instruction
system.cpu2.op_class::SimdSha1Hash2                 0      0.00%     60.00% # Class of executed instruction
system.cpu2.op_class::SimdSha256Hash                0      0.00%     60.00% # Class of executed instruction
system.cpu2.op_class::SimdSha256Hash2               0      0.00%     60.00% # Class of executed instruction
system.cpu2.op_class::SimdShaSigma2                 0      0.00%     60.00% # Class of executed instruction
system.cpu2.op_class::SimdShaSigma3                 0      0.00%     60.00% # Class of executed instruction
system.cpu2.op_class::SimdPredAlu                   0      0.00%     60.00% # Class of executed instruction
system.cpu2.op_class::MemRead                       7     28.00%     88.00% # Class of executed instruction
system.cpu2.op_class::MemWrite                      3     12.00%    100.00% # Class of executed instruction
system.cpu2.op_class::FloatMemRead                  0      0.00%    100.00% # Class of executed instruction
system.cpu2.op_class::FloatMemWrite                 0      0.00%    100.00% # Class of executed instruction
system.cpu2.op_class::IprAccess                     0      0.00%    100.00% # Class of executed instruction
system.cpu2.op_class::InstPrefetch                  0      0.00%    100.00% # Class of executed instruction
system.cpu2.op_class::total                        25                       # Class of executed instruction
system.cpu2.workload.numSyscalls                    0                       # Number of system calls
system.cpu3.Branches                                1                       # Number of branches fetched
system.cpu3.committedInsts                         19                       # Number of instructions committed
system.cpu3.committedOps                           24                       # Number of ops (including micro ops) committed
system.cpu3.idle_fraction                           0                       # Percentage of idle cycles
system.cpu3.l2bus.snoop_filter.hit_multi_requests            0                       # Number of requests hitting in the snoop filter with multiple (>1) holders of the requested data.
system.cpu3.l2bus.snoop_filter.hit_multi_snoops            0                       # Number of snoops hitting in the snoop filter with multiple (>1) holders of the requested data.
system.cpu3.l2bus.snoop_filter.hit_single_requests      1958886                       # Number of requests hitting in the snoop filter with a single holder of the requested data.
system.cpu3.l2bus.snoop_filter.hit_single_snoops          294                       # Number of snoops hitting in the snoop filter with a single holder of the requested data.
system.cpu3.l2bus.snoop_filter.tot_requests      3913446                       # Total number of requests made to the snoop filter.
system.cpu3.l2bus.snoop_filter.tot_snoops          294                       # Total number of snoops made to the snoop filter.
system.cpu3.mmucache.mmubus.snoop_filter.hit_multi_requests            0                       # Number of requests hitting in the snoop filter with multiple (>1) holders of the requested data.
system.cpu3.mmucache.mmubus.snoop_filter.hit_multi_snoops            0                       # Number of snoops hitting in the snoop filter with multiple (>1) holders of the requested data.
system.cpu3.mmucache.mmubus.snoop_filter.hit_single_requests            0                       # Number of requests hitting in the snoop filter with a single holder of the requested data.
system.cpu3.mmucache.mmubus.snoop_filter.hit_single_snoops            0                       # Number of snoops hitting in the snoop filter with a single holder of the requested data.
system.cpu3.mmucache.mmubus.snoop_filter.tot_requests            0                       # Total number of requests made to the snoop filter.
system.cpu3.mmucache.mmubus.snoop_filter.tot_snoops            0                       # Total number of snoops made to the snoop filter.
system.cpu3.not_idle_fraction                       1                       # Percentage of non-idle cycles
system.cpu3.numCycles                              30                       # number of cpu cycles simulated
system.cpu3.numWorkItemsCompleted                   0                       # number of work items this cpu completed
system.cpu3.numWorkItemsStarted                     0                       # number of work items this cpu started
system.cpu3.num_busy_cycles                        30                       # Number of busy cycles
system.cpu3.num_cc_register_reads                   5                       # number of times the CC registers were read
system.cpu3.num_cc_register_writes                  8                       # number of times the CC registers were written
system.cpu3.num_conditional_control_insts            1                       # number of instructions that are conditional controls
system.cpu3.num_fp_alu_accesses                    14                       # Number of float alu accesses
system.cpu3.num_fp_insts                           14                       # number of float instructions
system.cpu3.num_fp_register_reads                  36                       # number of times the floating registers were read
system.cpu3.num_fp_register_writes                 14                       # number of times the floating registers were written
system.cpu3.num_func_calls                          0                       # number of times a function call or return occured
system.cpu3.num_idle_cycles                         0                       # Number of idle cycles
system.cpu3.num_int_alu_accesses                   11                       # Number of integer alu accesses
system.cpu3.num_int_insts                          11                       # number of integer instructions
system.cpu3.num_int_register_reads                 18                       # number of times the integer registers were read
system.cpu3.num_int_register_writes                 9                       # number of times the integer registers were written
system.cpu3.num_load_insts                          1                       # Number of load instructions
system.cpu3.num_mem_refs                            1                       # number of memory refs
system.cpu3.num_store_insts                         0                       # Number of store instructions
system.cpu3.num_vec_alu_accesses                    0                       # Number of vector alu accesses
system.cpu3.num_vec_insts                           0                       # number of vector instructions
system.cpu3.num_vec_register_reads                  0                       # number of times the vector registers were read
system.cpu3.num_vec_register_writes                 0                       # number of times the vector registers were written
system.cpu3.op_class::No_OpClass                    0      0.00%      0.00% # Class of executed instruction
system.cpu3.op_class::IntAlu                       13     54.17%     54.17% # Class of executed instruction
system.cpu3.op_class::IntMult                       0      0.00%     54.17% # Class of executed instruction
system.cpu3.op_class::IntDiv                        0      0.00%     54.17% # Class of executed instruction
system.cpu3.op_class::FloatAdd                      0      0.00%     54.17% # Class of executed instruction
system.cpu3.op_class::FloatCmp                      0      0.00%     54.17% # Class of executed instruction
system.cpu3.op_class::FloatCvt                      0      0.00%     54.17% # Class of executed instruction
system.cpu3.op_class::FloatMult                     0      0.00%     54.17% # Class of executed instruction
system.cpu3.op_class::FloatMultAcc                  0      0.00%     54.17% # Class of executed instruction
system.cpu3.op_class::FloatDiv                      0      0.00%     54.17% # Class of executed instruction
system.cpu3.op_class::FloatMisc                     0      0.00%     54.17% # Class of executed instruction
system.cpu3.op_class::FloatSqrt                     0      0.00%     54.17% # Class of executed instruction
system.cpu3.op_class::SimdAdd                       0      0.00%     54.17% # Class of executed instruction
system.cpu3.op_class::SimdAddAcc                    0      0.00%     54.17% # Class of executed instruction
system.cpu3.op_class::SimdAlu                       0      0.00%     54.17% # Class of executed instruction
system.cpu3.op_class::SimdCmp                       0      0.00%     54.17% # Class of executed instruction
system.cpu3.op_class::SimdCvt                       0      0.00%     54.17% # Class of executed instruction
system.cpu3.op_class::SimdMisc                      0      0.00%     54.17% # Class of executed instruction
system.cpu3.op_class::SimdMult                      0      0.00%     54.17% # Class of executed instruction
system.cpu3.op_class::SimdMultAcc                   0      0.00%     54.17% # Class of executed instruction
system.cpu3.op_class::SimdShift                     0      0.00%     54.17% # Class of executed instruction
system.cpu3.op_class::SimdShiftAcc                  0      0.00%     54.17% # Class of executed instruction
system.cpu3.op_class::SimdDiv                       0      0.00%     54.17% # Class of executed instruction
system.cpu3.op_class::SimdSqrt                      0      0.00%     54.17% # Class of executed instruction
system.cpu3.op_class::SimdFloatAdd                  3     12.50%     66.67% # Class of executed instruction
system.cpu3.op_class::SimdFloatAlu                  0      0.00%     66.67% # Class of executed instruction
system.cpu3.op_class::SimdFloatCmp                  0      0.00%     66.67% # Class of executed instruction
system.cpu3.op_class::SimdFloatCvt                  0      0.00%     66.67% # Class of executed instruction
system.cpu3.op_class::SimdFloatDiv                  0      0.00%     66.67% # Class of executed instruction
system.cpu3.op_class::SimdFloatMisc                 0      0.00%     66.67% # Class of executed instruction
system.cpu3.op_class::SimdFloatMult                 7     29.17%     95.83% # Class of executed instruction
system.cpu3.op_class::SimdFloatMultAcc              0      0.00%     95.83% # Class of executed instruction
system.cpu3.op_class::SimdFloatSqrt                 0      0.00%     95.83% # Class of executed instruction
system.cpu3.op_class::SimdReduceAdd                 0      0.00%     95.83% # Class of executed instruction
system.cpu3.op_class::SimdReduceAlu                 0      0.00%     95.83% # Class of executed instruction
system.cpu3.op_class::SimdReduceCmp                 0      0.00%     95.83% # Class of executed instruction
system.cpu3.op_class::SimdFloatReduceAdd            0      0.00%     95.83% # Class of executed instruction
system.cpu3.op_class::SimdFloatReduceCmp            0      0.00%     95.83% # Class of executed instruction
system.cpu3.op_class::SimdAes                       0      0.00%     95.83% # Class of executed instruction
system.cpu3.op_class::SimdAesMix                    0      0.00%     95.83% # Class of executed instruction
system.cpu3.op_class::SimdSha1Hash                  0      0.00%     95.83% # Class of executed instruction
system.cpu3.op_class::SimdSha1Hash2                 0      0.00%     95.83% # Class of executed instruction
system.cpu3.op_class::SimdSha256Hash                0      0.00%     95.83% # Class of executed instruction
system.cpu3.op_class::SimdSha256Hash2               0      0.00%     95.83% # Class of executed instruction
system.cpu3.op_class::SimdShaSigma2                 0      0.00%     95.83% # Class of executed instruction
system.cpu3.op_class::SimdShaSigma3                 0      0.00%     95.83% # Class of executed instruction
system.cpu3.op_class::SimdPredAlu                   0      0.00%     95.83% # Class of executed instruction
system.cpu3.op_class::MemRead                       0      0.00%     95.83% # Class of executed instruction
system.cpu3.op_class::MemWrite                      0      0.00%     95.83% # Class of executed instruction
system.cpu3.op_class::FloatMemRead                  1      4.17%    100.00% # Class of executed instruction
system.cpu3.op_class::FloatMemWrite                 0      0.00%    100.00% # Class of executed instruction
system.cpu3.op_class::IprAccess                     0      0.00%    100.00% # Class of executed instruction
system.cpu3.op_class::InstPrefetch                  0      0.00%    100.00% # Class of executed instruction
system.cpu3.op_class::total                        24                       # Class of executed instruction
system.cpu3.workload.numSyscalls                    0                       # Number of system calls
system.l3bus.snoop_filter.hit_multi_requests            0                       # Number of requests hitting in the snoop filter with multiple (>1) holders of the requested data.
system.l3bus.snoop_filter.hit_multi_snoops            0                       # Number of snoops hitting in the snoop filter with multiple (>1) holders of the requested data.
system.l3bus.snoop_filter.hit_single_requests      1368872                       # Number of requests hitting in the snoop filter with a single holder of the requested data.
system.l3bus.snoop_filter.hit_single_snoops            0                       # Number of snoops hitting in the snoop filter with a single holder of the requested data.
system.l3bus.snoop_filter.tot_requests        2753198                       # Total number of requests made to the snoop filter.
system.l3bus.snoop_filter.tot_snoops                0                       # Total number of snoops made to the snoop filter.
system.membus.snoop_filter.hit_multi_requests            0                       # Number of requests hitting in the snoop filter with multiple (>1) holders of the requested data.
system.membus.snoop_filter.hit_multi_snoops            0                       # Number of snoops hitting in the snoop filter with multiple (>1) holders of the requested data.
system.membus.snoop_filter.hit_single_requests       559035                       # Number of requests hitting in the snoop filter with a single holder of the requested data.
system.membus.snoop_filter.hit_single_snoops            0                       # Number of snoops hitting in the snoop filter with a single holder of the requested data.
system.membus.snoop_filter.tot_requests       1197697                       # Total number of requests made to the snoop filter.
system.membus.snoop_filter.tot_snoops               0                       # Total number of snoops made to the snoop filter.
system.switch_cpus0.cc_regfile_reads         50620847                       # number of cc regfile reads
system.switch_cpus0.cc_regfile_writes        45697011                       # number of cc regfile writes
system.switch_cpus0.committedInsts          126937311                       # Number of Instructions Simulated
system.switch_cpus0.committedOps            230019851                       # Number of Ops (including micro ops) Simulated
system.switch_cpus0.cpi                      0.787781                       # CPI: Cycles Per Instruction
system.switch_cpus0.cpi_total                0.787781                       # CPI: Total CPI of All Threads
system.switch_cpus0.fp_regfile_reads        170324133                       # number of floating regfile reads
system.switch_cpus0.fp_regfile_writes       105855323                       # number of floating regfile writes
system.switch_cpus0.idleCycles                 389695                       # Total number of cycles that the CPU has spent unscheduled due to idling
system.switch_cpus0.iew.branchMispredicts       109828                       # Number of branch mispredicts detected at execute
system.switch_cpus0.iew.exec_branches        12894816                       # Number of branches executed
system.switch_cpus0.iew.exec_nop                    0                       # number of nop insts executed
system.switch_cpus0.iew.exec_rate            2.342607                       # Inst execution rate
system.switch_cpus0.iew.exec_refs            46966280                       # number of memory reference insts executed
system.switch_cpus0.iew.exec_stores          10833619                       # Number of stores executed
system.switch_cpus0.iew.exec_swp                    0                       # number of swp insts executed
system.switch_cpus0.iew.iewBlockCycles        2015048                       # Number of cycles IEW is blocking
system.switch_cpus0.iew.iewDispLoadInsts     35070349                       # Number of dispatched load instructions
system.switch_cpus0.iew.iewDispNonSpecInsts          100                       # Number of dispatched non-speculative instructions
system.switch_cpus0.iew.iewDispSquashedInsts         6650                       # Number of squashed instructions skipped by dispatch
system.switch_cpus0.iew.iewDispStoreInsts     11012178                       # Number of dispatched store instructions
system.switch_cpus0.iew.iewDispatchedInsts    234740047                       # Number of instructions dispatched to IQ
system.switch_cpus0.iew.iewExecLoadInsts     36132661                       # Number of load instructions executed
system.switch_cpus0.iew.iewExecSquashedInsts       188459                       # Number of squashed instructions skipped in execute
system.switch_cpus0.iew.iewExecutedInsts    234257862                       # Number of executed instructions
system.switch_cpus0.iew.iewIQFullEvents          5278                       # Number of times the IQ has become full, causing a stall
system.switch_cpus0.iew.iewIdleCycles               0                       # Number of cycles IEW is idle
system.switch_cpus0.iew.iewLSQFullEvents     12205277                       # Number of times the LSQ has become full, causing a stall
system.switch_cpus0.iew.iewSquashCycles        111141                       # Number of cycles IEW is squashing
system.switch_cpus0.iew.iewUnblockCycles     12272432                       # Number of cycles IEW is unblocking
system.switch_cpus0.iew.memOrderViolationEvents         2736                       # Number of memory order violations
system.switch_cpus0.iew.predictedNotTakenIncorrect        71665                       # Number of branches that were predicted not taken incorrectly
system.switch_cpus0.iew.predictedTakenIncorrect        38163                       # Number of branches that were predicted taken incorrectly
system.switch_cpus0.iew.wb_consumers        280017844                       # num instructions consuming a value
system.switch_cpus0.iew.wb_count            232877766                       # cumulative count of insts written-back
system.switch_cpus0.iew.wb_fanout            0.600590                       # average fanout of values written-back
system.switch_cpus0.iew.wb_producers        168175793                       # num instructions producing a value
system.switch_cpus0.iew.wb_rate              2.328806                       # insts written-back per cycle
system.switch_cpus0.iew.wb_sent             232980627                       # cumulative count of insts sent to commit
system.switch_cpus0.int_regfile_reads       215171716                       # number of integer regfile reads
system.switch_cpus0.int_regfile_writes      102759888                       # number of integer regfile writes
system.switch_cpus0.ipc                      1.269388                       # IPC: Instructions Per Cycle
system.switch_cpus0.ipc_total                1.269388                       # IPC: Total IPC of All Threads
system.switch_cpus0.iq.FU_type_0::No_OpClass       114969      0.05%      0.05% # Type of FU issued
system.switch_cpus0.iq.FU_type_0::IntAlu    113576319     48.44%     48.49% # Type of FU issued
system.switch_cpus0.iq.FU_type_0::IntMult        25925      0.01%     48.50% # Type of FU issued
system.switch_cpus0.iq.FU_type_0::IntDiv            0      0.00%     48.50% # Type of FU issued
system.switch_cpus0.iq.FU_type_0::FloatAdd     18105241      7.72%     56.23% # Type of FU issued
system.switch_cpus0.iq.FU_type_0::FloatCmp            0      0.00%     56.23% # Type of FU issued
system.switch_cpus0.iq.FU_type_0::FloatCvt            0      0.00%     56.23% # Type of FU issued
system.switch_cpus0.iq.FU_type_0::FloatMult            0      0.00%     56.23% # Type of FU issued
system.switch_cpus0.iq.FU_type_0::FloatMultAcc            0      0.00%     56.23% # Type of FU issued
system.switch_cpus0.iq.FU_type_0::FloatDiv            0      0.00%     56.23% # Type of FU issued
system.switch_cpus0.iq.FU_type_0::FloatMisc            0      0.00%     56.23% # Type of FU issued
system.switch_cpus0.iq.FU_type_0::FloatSqrt            0      0.00%     56.23% # Type of FU issued
system.switch_cpus0.iq.FU_type_0::SimdAdd            0      0.00%     56.23% # Type of FU issued
system.switch_cpus0.iq.FU_type_0::SimdAddAcc            0      0.00%     56.23% # Type of FU issued
system.switch_cpus0.iq.FU_type_0::SimdAlu      7356486      3.14%     59.36% # Type of FU issued
system.switch_cpus0.iq.FU_type_0::SimdCmp            0      0.00%     59.36% # Type of FU issued
system.switch_cpus0.iq.FU_type_0::SimdCvt            0      0.00%     59.36% # Type of FU issued
system.switch_cpus0.iq.FU_type_0::SimdMisc      6217865      2.65%     62.02% # Type of FU issued
system.switch_cpus0.iq.FU_type_0::SimdMult            0      0.00%     62.02% # Type of FU issued
system.switch_cpus0.iq.FU_type_0::SimdMultAcc            0      0.00%     62.02% # Type of FU issued
system.switch_cpus0.iq.FU_type_0::SimdShift            0      0.00%     62.02% # Type of FU issued
system.switch_cpus0.iq.FU_type_0::SimdShiftAcc            0      0.00%     62.02% # Type of FU issued
system.switch_cpus0.iq.FU_type_0::SimdDiv            0      0.00%     62.02% # Type of FU issued
system.switch_cpus0.iq.FU_type_0::SimdSqrt            0      0.00%     62.02% # Type of FU issued
system.switch_cpus0.iq.FU_type_0::SimdFloatAdd     18230909      7.78%     69.79% # Type of FU issued
system.switch_cpus0.iq.FU_type_0::SimdFloatAlu            0      0.00%     69.79% # Type of FU issued
system.switch_cpus0.iq.FU_type_0::SimdFloatCmp        50786      0.02%     69.81% # Type of FU issued
system.switch_cpus0.iq.FU_type_0::SimdFloatCvt      4749450      2.03%     71.84% # Type of FU issued
system.switch_cpus0.iq.FU_type_0::SimdFloatDiv      1226477      0.52%     72.36% # Type of FU issued
system.switch_cpus0.iq.FU_type_0::SimdFloatMisc            0      0.00%     72.36% # Type of FU issued
system.switch_cpus0.iq.FU_type_0::SimdFloatMult     17748020      7.57%     79.93% # Type of FU issued
system.switch_cpus0.iq.FU_type_0::SimdFloatMultAcc            0      0.00%     79.93% # Type of FU issued
system.switch_cpus0.iq.FU_type_0::SimdFloatSqrt         4234      0.00%     79.94% # Type of FU issued
system.switch_cpus0.iq.FU_type_0::SimdReduceAdd            0      0.00%     79.94% # Type of FU issued
system.switch_cpus0.iq.FU_type_0::SimdReduceAlu            0      0.00%     79.94% # Type of FU issued
system.switch_cpus0.iq.FU_type_0::SimdReduceCmp            0      0.00%     79.94% # Type of FU issued
system.switch_cpus0.iq.FU_type_0::SimdFloatReduceAdd            0      0.00%     79.94% # Type of FU issued
system.switch_cpus0.iq.FU_type_0::SimdFloatReduceCmp            0      0.00%     79.94% # Type of FU issued
system.switch_cpus0.iq.FU_type_0::SimdAes            0      0.00%     79.94% # Type of FU issued
system.switch_cpus0.iq.FU_type_0::SimdAesMix            0      0.00%     79.94% # Type of FU issued
system.switch_cpus0.iq.FU_type_0::SimdSha1Hash            0      0.00%     79.94% # Type of FU issued
system.switch_cpus0.iq.FU_type_0::SimdSha1Hash2            0      0.00%     79.94% # Type of FU issued
system.switch_cpus0.iq.FU_type_0::SimdSha256Hash            0      0.00%     79.94% # Type of FU issued
system.switch_cpus0.iq.FU_type_0::SimdSha256Hash2            0      0.00%     79.94% # Type of FU issued
system.switch_cpus0.iq.FU_type_0::SimdShaSigma2            0      0.00%     79.94% # Type of FU issued
system.switch_cpus0.iq.FU_type_0::SimdShaSigma3            0      0.00%     79.94% # Type of FU issued
system.switch_cpus0.iq.FU_type_0::SimdPredAlu            0      0.00%     79.94% # Type of FU issued
system.switch_cpus0.iq.FU_type_0::MemRead      9459562      4.03%     83.97% # Type of FU issued
system.switch_cpus0.iq.FU_type_0::MemWrite      7352473      3.14%     87.11% # Type of FU issued
system.switch_cpus0.iq.FU_type_0::FloatMemRead     26726789     11.40%     98.51% # Type of FU issued
system.switch_cpus0.iq.FU_type_0::FloatMemWrite      3500816      1.49%    100.00% # Type of FU issued
system.switch_cpus0.iq.FU_type_0::IprAccess            0      0.00%    100.00% # Type of FU issued
system.switch_cpus0.iq.FU_type_0::InstPrefetch            0      0.00%    100.00% # Type of FU issued
system.switch_cpus0.iq.FU_type_0::total     234446321                       # Type of FU issued
system.switch_cpus0.iq.fp_alu_accesses      116667559                       # Number of floating point alu accesses
system.switch_cpus0.iq.fp_inst_queue_reads    232890712                       # Number of floating instruction queue reads
system.switch_cpus0.iq.fp_inst_queue_wakeup_accesses    114863209                       # Number of floating instruction queue wakeup accesses
system.switch_cpus0.iq.fp_inst_queue_writes    118154810                       # Number of floating instruction queue writes
system.switch_cpus0.iq.fu_busy_cnt            2071385                       # FU busy when requested
system.switch_cpus0.iq.fu_busy_rate          0.008835                       # FU busy rate (busy events/executed inst)
system.switch_cpus0.iq.fu_full::No_OpClass            0      0.00%      0.00% # attempts to use FU when none available
system.switch_cpus0.iq.fu_full::IntAlu        1164595     56.22%     56.22% # attempts to use FU when none available
system.switch_cpus0.iq.fu_full::IntMult             0      0.00%     56.22% # attempts to use FU when none available
system.switch_cpus0.iq.fu_full::IntDiv              0      0.00%     56.22% # attempts to use FU when none available
system.switch_cpus0.iq.fu_full::FloatAdd        20667      1.00%     57.22% # attempts to use FU when none available
system.switch_cpus0.iq.fu_full::FloatCmp            0      0.00%     57.22% # attempts to use FU when none available
system.switch_cpus0.iq.fu_full::FloatCvt            0      0.00%     57.22% # attempts to use FU when none available
system.switch_cpus0.iq.fu_full::FloatMult            0      0.00%     57.22% # attempts to use FU when none available
system.switch_cpus0.iq.fu_full::FloatMultAcc            0      0.00%     57.22% # attempts to use FU when none available
system.switch_cpus0.iq.fu_full::FloatDiv            0      0.00%     57.22% # attempts to use FU when none available
system.switch_cpus0.iq.fu_full::FloatMisc            0      0.00%     57.22% # attempts to use FU when none available
system.switch_cpus0.iq.fu_full::FloatSqrt            0      0.00%     57.22% # attempts to use FU when none available
system.switch_cpus0.iq.fu_full::SimdAdd             0      0.00%     57.22% # attempts to use FU when none available
system.switch_cpus0.iq.fu_full::SimdAddAcc            0      0.00%     57.22% # attempts to use FU when none available
system.switch_cpus0.iq.fu_full::SimdAlu        225430     10.88%     68.10% # attempts to use FU when none available
system.switch_cpus0.iq.fu_full::SimdCmp             0      0.00%     68.10% # attempts to use FU when none available
system.switch_cpus0.iq.fu_full::SimdCvt             0      0.00%     68.10% # attempts to use FU when none available
system.switch_cpus0.iq.fu_full::SimdMisc        21395      1.03%     69.14% # attempts to use FU when none available
system.switch_cpus0.iq.fu_full::SimdMult            0      0.00%     69.14% # attempts to use FU when none available
system.switch_cpus0.iq.fu_full::SimdMultAcc            0      0.00%     69.14% # attempts to use FU when none available
system.switch_cpus0.iq.fu_full::SimdShift            0      0.00%     69.14% # attempts to use FU when none available
system.switch_cpus0.iq.fu_full::SimdShiftAcc            0      0.00%     69.14% # attempts to use FU when none available
system.switch_cpus0.iq.fu_full::SimdDiv             0      0.00%     69.14% # attempts to use FU when none available
system.switch_cpus0.iq.fu_full::SimdSqrt            0      0.00%     69.14% # attempts to use FU when none available
system.switch_cpus0.iq.fu_full::SimdFloatAdd        20761      1.00%     70.14% # attempts to use FU when none available
system.switch_cpus0.iq.fu_full::SimdFloatAlu            0      0.00%     70.14% # attempts to use FU when none available
system.switch_cpus0.iq.fu_full::SimdFloatCmp            0      0.00%     70.14% # attempts to use FU when none available
system.switch_cpus0.iq.fu_full::SimdFloatCvt        25538      1.23%     71.37% # attempts to use FU when none available
system.switch_cpus0.iq.fu_full::SimdFloatDiv         1606      0.08%     71.45% # attempts to use FU when none available
system.switch_cpus0.iq.fu_full::SimdFloatMisc            0      0.00%     71.45% # attempts to use FU when none available
system.switch_cpus0.iq.fu_full::SimdFloatMult        22350      1.08%     72.53% # attempts to use FU when none available
system.switch_cpus0.iq.fu_full::SimdFloatMultAcc            0      0.00%     72.53% # attempts to use FU when none available
system.switch_cpus0.iq.fu_full::SimdFloatSqrt            0      0.00%     72.53% # attempts to use FU when none available
system.switch_cpus0.iq.fu_full::SimdReduceAdd            0      0.00%     72.53% # attempts to use FU when none available
system.switch_cpus0.iq.fu_full::SimdReduceAlu            0      0.00%     72.53% # attempts to use FU when none available
system.switch_cpus0.iq.fu_full::SimdReduceCmp            0      0.00%     72.53% # attempts to use FU when none available
system.switch_cpus0.iq.fu_full::SimdFloatReduceAdd            0      0.00%     72.53% # attempts to use FU when none available
system.switch_cpus0.iq.fu_full::SimdFloatReduceCmp            0      0.00%     72.53% # attempts to use FU when none available
system.switch_cpus0.iq.fu_full::SimdAes             0      0.00%     72.53% # attempts to use FU when none available
system.switch_cpus0.iq.fu_full::SimdAesMix            0      0.00%     72.53% # attempts to use FU when none available
system.switch_cpus0.iq.fu_full::SimdSha1Hash            0      0.00%     72.53% # attempts to use FU when none available
system.switch_cpus0.iq.fu_full::SimdSha1Hash2            0      0.00%     72.53% # attempts to use FU when none available
system.switch_cpus0.iq.fu_full::SimdSha256Hash            0      0.00%     72.53% # attempts to use FU when none available
system.switch_cpus0.iq.fu_full::SimdSha256Hash2            0      0.00%     72.53% # attempts to use FU when none available
system.switch_cpus0.iq.fu_full::SimdShaSigma2            0      0.00%     72.53% # attempts to use FU when none available
system.switch_cpus0.iq.fu_full::SimdShaSigma3            0      0.00%     72.53% # attempts to use FU when none available
system.switch_cpus0.iq.fu_full::SimdPredAlu            0      0.00%     72.53% # attempts to use FU when none available
system.switch_cpus0.iq.fu_full::MemRead        317721     15.34%     87.87% # attempts to use FU when none available
system.switch_cpus0.iq.fu_full::MemWrite       148516      7.17%     95.04% # attempts to use FU when none available
system.switch_cpus0.iq.fu_full::FloatMemRead        73218      3.53%     98.57% # attempts to use FU when none available
system.switch_cpus0.iq.fu_full::FloatMemWrite        29588      1.43%    100.00% # attempts to use FU when none available
system.switch_cpus0.iq.fu_full::IprAccess            0      0.00%    100.00% # attempts to use FU when none available
system.switch_cpus0.iq.fu_full::InstPrefetch            0      0.00%    100.00% # attempts to use FU when none available
system.switch_cpus0.iq.int_alu_accesses     119735178                       # Number of integer alu accesses
system.switch_cpus0.iq.int_inst_queue_reads    337700306                       # Number of integer instruction queue reads
system.switch_cpus0.iq.int_inst_queue_wakeup_accesses    118014557                       # Number of integer instruction queue wakeup accesses
system.switch_cpus0.iq.int_inst_queue_writes    121308165                       # Number of integer instruction queue writes
system.switch_cpus0.iq.iqInstsAdded         234736420                       # Number of instructions added to the IQ (excludes non-spec)
system.switch_cpus0.iq.iqInstsIssued        234446321                       # Number of instructions issued
system.switch_cpus0.iq.iqNonSpecInstsAdded         3627                       # Number of non-speculative instructions added to the IQ
system.switch_cpus0.iq.iqSquashedInstsExamined      4720196                       # Number of squashed instructions iterated over during squash; mainly for profiling
system.switch_cpus0.iq.iqSquashedInstsIssued        17897                       # Number of squashed instructions issued
system.switch_cpus0.iq.iqSquashedNonSpecRemoved         3204                       # Number of squashed non-spec instructions that were removed
system.switch_cpus0.iq.iqSquashedOperandsExamined      5252075                       # Number of squashed operands that are examined and possibly removed from graph
system.switch_cpus0.iq.issued_per_cycle::samples     99609094                       # Number of insts issued each cycle
system.switch_cpus0.iq.issued_per_cycle::mean     2.353664                       # Number of insts issued each cycle
system.switch_cpus0.iq.issued_per_cycle::stdev     2.528774                       # Number of insts issued each cycle
system.switch_cpus0.iq.issued_per_cycle::underflows            0      0.00%      0.00% # Number of insts issued each cycle
system.switch_cpus0.iq.issued_per_cycle::0     41523904     41.69%     41.69% # Number of insts issued each cycle
system.switch_cpus0.iq.issued_per_cycle::1      6517187      6.54%     48.23% # Number of insts issued each cycle
system.switch_cpus0.iq.issued_per_cycle::2      9382231      9.42%     57.65% # Number of insts issued each cycle
system.switch_cpus0.iq.issued_per_cycle::3      9710269      9.75%     67.40% # Number of insts issued each cycle
system.switch_cpus0.iq.issued_per_cycle::4      9459125      9.50%     76.89% # Number of insts issued each cycle
system.switch_cpus0.iq.issued_per_cycle::5      8079581      8.11%     85.00% # Number of insts issued each cycle
system.switch_cpus0.iq.issued_per_cycle::6      6736318      6.76%     91.77% # Number of insts issued each cycle
system.switch_cpus0.iq.issued_per_cycle::7      4222280      4.24%     96.01% # Number of insts issued each cycle
system.switch_cpus0.iq.issued_per_cycle::8      3978199      3.99%    100.00% # Number of insts issued each cycle
system.switch_cpus0.iq.issued_per_cycle::overflows            0      0.00%    100.00% # Number of insts issued each cycle
system.switch_cpus0.iq.issued_per_cycle::min_value            0                       # Number of insts issued each cycle
system.switch_cpus0.iq.issued_per_cycle::max_value            8                       # Number of insts issued each cycle
system.switch_cpus0.iq.issued_per_cycle::total     99609094                       # Number of insts issued each cycle
system.switch_cpus0.iq.rate                  2.344492                       # Inst issue rate
system.switch_cpus0.iq.vec_alu_accesses             0                       # Number of vector alu accesses
system.switch_cpus0.iq.vec_inst_queue_reads            0                       # Number of vector instruction queue reads
system.switch_cpus0.iq.vec_inst_queue_wakeup_accesses            0                       # Number of vector instruction queue wakeup accesses
system.switch_cpus0.iq.vec_inst_queue_writes            0                       # Number of vector instruction queue writes
system.switch_cpus0.memDep0.conflictingLoads      2774888                       # Number of conflicting loads.
system.switch_cpus0.memDep0.conflictingStores       516234                       # Number of conflicting stores.
system.switch_cpus0.memDep0.insertedLoads     35070349                       # Number of loads inserted to the mem dependence unit.
system.switch_cpus0.memDep0.insertedStores     11012178                       # Number of stores inserted to the mem dependence unit.
system.switch_cpus0.misc_regfile_reads       89484265                       # number of misc regfile reads
system.switch_cpus0.misc_regfile_writes             1                       # number of misc regfile writes
system.switch_cpus0.numCycles                99998789                       # number of cpu cycles simulated
system.switch_cpus0.numWorkItemsCompleted            0                       # number of work items this cpu completed
system.switch_cpus0.numWorkItemsStarted             0                       # number of work items this cpu started
system.switch_cpus0.timesIdled                  11274                       # Number of times that the entire CPU went into an idle state and unscheduled itself
system.switch_cpus1.cc_regfile_reads        204812924                       # number of cc regfile reads
system.switch_cpus1.cc_regfile_writes       100705302                       # number of cc regfile writes
system.switch_cpus1.committedInsts          250000004                       # Number of Instructions Simulated
system.switch_cpus1.committedOps            450562967                       # Number of Ops (including micro ops) Simulated
system.switch_cpus1.cpi                      0.399995                       # CPI: Cycles Per Instruction
system.switch_cpus1.cpi_total                0.399995                       # CPI: Total CPI of All Threads
system.switch_cpus1.fp_regfile_reads        147777358                       # number of floating regfile reads
system.switch_cpus1.fp_regfile_writes        84845784                       # number of floating regfile writes
system.switch_cpus1.idleCycles                  98119                       # Total number of cycles that the CPU has spent unscheduled due to idling
system.switch_cpus1.iew.branchMispredicts      1114822                       # Number of branch mispredicts detected at execute
system.switch_cpus1.iew.exec_branches        46357526                       # Number of branches executed
system.switch_cpus1.iew.exec_nop                    0                       # number of nop insts executed
system.switch_cpus1.iew.exec_rate            4.809814                       # Inst execution rate
system.switch_cpus1.iew.exec_refs           140948330                       # number of memory reference insts executed
system.switch_cpus1.iew.exec_stores          42746150                       # Number of stores executed
system.switch_cpus1.iew.exec_swp                    0                       # number of swp insts executed
system.switch_cpus1.iew.iewBlockCycles        6395334                       # Number of cycles IEW is blocking
system.switch_cpus1.iew.iewDispLoadInsts    102949871                       # Number of dispatched load instructions
system.switch_cpus1.iew.iewDispNonSpecInsts            6                       # Number of dispatched non-speculative instructions
system.switch_cpus1.iew.iewDispSquashedInsts          383                       # Number of squashed instructions skipped by dispatch
system.switch_cpus1.iew.iewDispStoreInsts     45390587                       # Number of dispatched store instructions
system.switch_cpus1.iew.iewDispatchedInsts    503511239                       # Number of instructions dispatched to IQ
system.switch_cpus1.iew.iewExecLoadInsts     98202180                       # Number of load instructions executed
system.switch_cpus1.iew.iewExecSquashedInsts      3010054                       # Number of squashed instructions skipped in execute
system.switch_cpus1.iew.iewExecutedInsts    480975587                       # Number of executed instructions
system.switch_cpus1.iew.iewIQFullEvents          9630                       # Number of times the IQ has become full, causing a stall
system.switch_cpus1.iew.iewIdleCycles               0                       # Number of cycles IEW is idle
system.switch_cpus1.iew.iewLSQFullEvents       196584                       # Number of times the LSQ has become full, causing a stall
system.switch_cpus1.iew.iewSquashCycles        996934                       # Number of cycles IEW is squashing
system.switch_cpus1.iew.iewUnblockCycles       210793                       # Number of cycles IEW is unblocking
system.switch_cpus1.iew.memOrderViolationEvents        18548                       # Number of memory order violations
system.switch_cpus1.iew.predictedNotTakenIncorrect       728202                       # Number of branches that were predicted not taken incorrectly
system.switch_cpus1.iew.predictedTakenIncorrect       386620                       # Number of branches that were predicted taken incorrectly
system.switch_cpus1.iew.wb_consumers        629437888                       # num instructions consuming a value
system.switch_cpus1.iew.wb_count            479131050                       # cumulative count of insts written-back
system.switch_cpus1.iew.wb_fanout            0.567200                       # average fanout of values written-back
system.switch_cpus1.iew.wb_producers        357017310                       # num instructions producing a value
system.switch_cpus1.iew.wb_rate              4.791369                       # insts written-back per cycle
system.switch_cpus1.iew.wb_sent             480385576                       # cumulative count of insts sent to commit
system.switch_cpus1.int_regfile_reads       665366798                       # number of integer regfile reads
system.switch_cpus1.int_regfile_writes      299674759                       # number of integer regfile writes
system.switch_cpus1.ipc                      2.500030                       # IPC: Instructions Per Cycle
system.switch_cpus1.ipc_total                2.500030                       # IPC: Total IPC of All Threads
system.switch_cpus1.iq.FU_type_0::No_OpClass      2598041      0.54%      0.54% # Type of FU issued
system.switch_cpus1.iq.FU_type_0::IntAlu    289955918     59.91%     60.45% # Type of FU issued
system.switch_cpus1.iq.FU_type_0::IntMult       973573      0.20%     60.65% # Type of FU issued
system.switch_cpus1.iq.FU_type_0::IntDiv            0      0.00%     60.65% # Type of FU issued
system.switch_cpus1.iq.FU_type_0::FloatAdd      1295072      0.27%     60.92% # Type of FU issued
system.switch_cpus1.iq.FU_type_0::FloatCmp            0      0.00%     60.92% # Type of FU issued
system.switch_cpus1.iq.FU_type_0::FloatCvt            0      0.00%     60.92% # Type of FU issued
system.switch_cpus1.iq.FU_type_0::FloatMult            0      0.00%     60.92% # Type of FU issued
system.switch_cpus1.iq.FU_type_0::FloatMultAcc            0      0.00%     60.92% # Type of FU issued
system.switch_cpus1.iq.FU_type_0::FloatDiv            0      0.00%     60.92% # Type of FU issued
system.switch_cpus1.iq.FU_type_0::FloatMisc            0      0.00%     60.92% # Type of FU issued
system.switch_cpus1.iq.FU_type_0::FloatSqrt            0      0.00%     60.92% # Type of FU issued
system.switch_cpus1.iq.FU_type_0::SimdAdd            0      0.00%     60.92% # Type of FU issued
system.switch_cpus1.iq.FU_type_0::SimdAddAcc            0      0.00%     60.92% # Type of FU issued
system.switch_cpus1.iq.FU_type_0::SimdAlu      3134836      0.65%     61.56% # Type of FU issued
system.switch_cpus1.iq.FU_type_0::SimdCmp            0      0.00%     61.56% # Type of FU issued
system.switch_cpus1.iq.FU_type_0::SimdCvt            0      0.00%     61.56% # Type of FU issued
system.switch_cpus1.iq.FU_type_0::SimdMisc       204021      0.04%     61.61% # Type of FU issued
system.switch_cpus1.iq.FU_type_0::SimdMult            0      0.00%     61.61% # Type of FU issued
system.switch_cpus1.iq.FU_type_0::SimdMultAcc            0      0.00%     61.61% # Type of FU issued
system.switch_cpus1.iq.FU_type_0::SimdShift            0      0.00%     61.61% # Type of FU issued
system.switch_cpus1.iq.FU_type_0::SimdShiftAcc            0      0.00%     61.61% # Type of FU issued
system.switch_cpus1.iq.FU_type_0::SimdDiv            0      0.00%     61.61% # Type of FU issued
system.switch_cpus1.iq.FU_type_0::SimdSqrt            0      0.00%     61.61% # Type of FU issued
system.switch_cpus1.iq.FU_type_0::SimdFloatAdd     17532761      3.62%     65.23% # Type of FU issued
system.switch_cpus1.iq.FU_type_0::SimdFloatAlu            0      0.00%     65.23% # Type of FU issued
system.switch_cpus1.iq.FU_type_0::SimdFloatCmp        60184      0.01%     65.24% # Type of FU issued
system.switch_cpus1.iq.FU_type_0::SimdFloatCvt      7672114      1.59%     66.83% # Type of FU issued
system.switch_cpus1.iq.FU_type_0::SimdFloatDiv       602008      0.12%     66.95% # Type of FU issued
system.switch_cpus1.iq.FU_type_0::SimdFloatMisc            0      0.00%     66.95% # Type of FU issued
system.switch_cpus1.iq.FU_type_0::SimdFloatMult     17421542      3.60%     70.55% # Type of FU issued
system.switch_cpus1.iq.FU_type_0::SimdFloatMultAcc            0      0.00%     70.55% # Type of FU issued
system.switch_cpus1.iq.FU_type_0::SimdFloatSqrt        41995      0.01%     70.56% # Type of FU issued
system.switch_cpus1.iq.FU_type_0::SimdReduceAdd            0      0.00%     70.56% # Type of FU issued
system.switch_cpus1.iq.FU_type_0::SimdReduceAlu            0      0.00%     70.56% # Type of FU issued
system.switch_cpus1.iq.FU_type_0::SimdReduceCmp            0      0.00%     70.56% # Type of FU issued
system.switch_cpus1.iq.FU_type_0::SimdFloatReduceAdd            0      0.00%     70.56% # Type of FU issued
system.switch_cpus1.iq.FU_type_0::SimdFloatReduceCmp            0      0.00%     70.56% # Type of FU issued
[...]
system.switch_cpus3.commit.numCommittedDist::stdev     3.314462                       # Number of insts commited each cycle
system.switch_cpus3.commit.numCommittedDist::underflows            0      0.00%      0.00% # Number of insts commited each cycle
system.switch_cpus3.commit.numCommittedDist::0     37159173     38.31%     38.31% # Number of insts commited each cycle
system.switch_cpus3.commit.numCommittedDist::1     15163116     15.63%     53.94% # Number of insts commited each cycle
system.switch_cpus3.commit.numCommittedDist::2      4651055      4.79%     58.74% # Number of insts commited each cycle
system.switch_cpus3.commit.numCommittedDist::3      4670234      4.81%     63.55% # Number of insts commited each cycle
system.switch_cpus3.commit.numCommittedDist::4      5903585      6.09%     69.64% # Number of insts commited each cycle
system.switch_cpus3.commit.numCommittedDist::5      1959523      2.02%     71.66% # Number of insts commited each cycle
system.switch_cpus3.commit.numCommittedDist::6      2004254      2.07%     73.72% # Number of insts commited each cycle
system.switch_cpus3.commit.numCommittedDist::7       332932      0.34%     74.07% # Number of insts commited each cycle
system.switch_cpus3.commit.numCommittedDist::8     25155403     25.93%    100.00% # Number of insts commited each cycle
system.switch_cpus3.commit.numCommittedDist::overflows            0      0.00%    100.00% # Number of insts commited each cycle
system.switch_cpus3.commit.numCommittedDist::min_value            0                       # Number of insts commited each cycle
system.switch_cpus3.commit.numCommittedDist::max_value            8                       # Number of insts commited each cycle
system.switch_cpus3.commit.numCommittedDist::total     96999275                       # Number of insts commited each cycle
system.switch_cpus3.commit.instsCommitted    188594198                       # Number of instructions committed
system.switch_cpus3.commit.opsCommitted     287487155                       # Number of ops (including micro ops) committed
system.switch_cpus3.commit.memRefs           56761256                       # Number of memory references committed
system.switch_cpus3.commit.loads             46120173                       # Number of loads committed
system.switch_cpus3.commit.amos                     0                       # Number of atomic instructions committed
system.switch_cpus3.commit.membars                  0                       # Number of memory barriers committed
system.switch_cpus3.commit.branches          18501392                       # Number of branches committed
system.switch_cpus3.commit.vector                   0                       # Number of committed Vector instructions.
system.switch_cpus3.commit.floating         160949603                       # Number of committed floating point instructions.
system.switch_cpus3.commit.integer          173699891                       # Number of committed integer instructions.
system.switch_cpus3.commit.functionCalls       214117                       # Number of function calls committed.
system.switch_cpus3.commit.committedInstType_0::No_OpClass          991      0.00%      0.00% # Class of committed instruction
system.switch_cpus3.commit.committedInstType_0::IntAlu    139924599     48.67%     48.67% # Class of committed instruction
system.switch_cpus3.commit.committedInstType_0::IntMult      1482078      0.52%     49.19% # Class of committed instruction
system.switch_cpus3.commit.committedInstType_0::IntDiv            0      0.00%     49.19% # Class of committed instruction
system.switch_cpus3.commit.committedInstType_0::FloatAdd      2570116      0.89%     50.08% # Class of committed instruction
system.switch_cpus3.commit.committedInstType_0::FloatCmp            0      0.00%     50.08% # Class of committed instruction
system.switch_cpus3.commit.committedInstType_0::FloatCvt            0      0.00%     50.08% # Class of committed instruction
system.switch_cpus3.commit.committedInstType_0::FloatMult            0      0.00%     50.08% # Class of committed instruction
system.switch_cpus3.commit.committedInstType_0::FloatMultAcc            0      0.00%     50.08% # Class of committed instruction
system.switch_cpus3.commit.committedInstType_0::FloatDiv            0      0.00%     50.08% # Class of committed instruction
system.switch_cpus3.commit.committedInstType_0::FloatMisc            0      0.00%     50.08% # Class of committed instruction
system.switch_cpus3.commit.committedInstType_0::FloatSqrt            0      0.00%     50.08% # Class of committed instruction
system.switch_cpus3.commit.committedInstType_0::SimdAdd            0      0.00%     50.08% # Class of committed instruction
system.switch_cpus3.commit.committedInstType_0::SimdAddAcc            0      0.00%     50.08% # Class of committed instruction
system.switch_cpus3.commit.committedInstType_0::SimdAlu      3874790      1.35%     51.43% # Class of committed instruction
system.switch_cpus3.commit.committedInstType_0::SimdCmp            0      0.00%     51.43% # Class of committed instruction
system.switch_cpus3.commit.committedInstType_0::SimdCvt            0      0.00%     51.43% # Class of committed instruction
system.switch_cpus3.commit.committedInstType_0::SimdMisc      1498819      0.52%     51.95% # Class of committed instruction
system.switch_cpus3.commit.committedInstType_0::SimdMult            0      0.00%     51.95% # Class of committed instruction
system.switch_cpus3.commit.committedInstType_0::SimdMultAcc            0      0.00%     51.95% # Class of committed instruction
system.switch_cpus3.commit.committedInstType_0::SimdShift            0      0.00%     51.95% # Class of committed instruction
system.switch_cpus3.commit.committedInstType_0::SimdShiftAcc            0      0.00%     51.95% # Class of committed instruction
system.switch_cpus3.commit.committedInstType_0::SimdDiv            0      0.00%     51.95% # Class of committed instruction
system.switch_cpus3.commit.committedInstType_0::SimdSqrt            0      0.00%     51.95% # Class of committed instruction
system.switch_cpus3.commit.committedInstType_0::SimdFloatAdd     31860677     11.08%     63.03% # Class of committed instruction
system.switch_cpus3.commit.committedInstType_0::SimdFloatAlu            0      0.00%     63.03% # Class of committed instruction
system.switch_cpus3.commit.committedInstType_0::SimdFloatCmp            0      0.00%     63.03% # Class of committed instruction
system.switch_cpus3.commit.committedInstType_0::SimdFloatCvt      9185577      3.20%     66.23% # Class of committed instruction
system.switch_cpus3.commit.committedInstType_0::SimdFloatDiv      1719661      0.60%     66.83% # Class of committed instruction
system.switch_cpus3.commit.committedInstType_0::SimdFloatMisc            0      0.00%     66.83% # Class of committed instruction
system.switch_cpus3.commit.committedInstType_0::SimdFloatMult     37127504     12.91%     79.74% # Class of committed instruction
system.switch_cpus3.commit.committedInstType_0::SimdFloatMultAcc            0      0.00%     79.74% # Class of committed instruction
system.switch_cpus3.commit.committedInstType_0::SimdFloatSqrt      1481087      0.52%     80.26% # Class of committed instruction
system.switch_cpus3.commit.committedInstType_0::SimdReduceAdd            0      0.00%     80.26% # Class of committed instruction
system.switch_cpus3.commit.committedInstType_0::SimdReduceAlu            0      0.00%     80.26% # Class of committed instruction
system.switch_cpus3.commit.committedInstType_0::SimdReduceCmp            0      0.00%     80.26% # Class of committed instruction
system.switch_cpus3.commit.committedInstType_0::SimdFloatReduceAdd            0      0.00%     80.26% # Class of committed instruction
system.switch_cpus3.commit.committedInstType_0::SimdFloatReduceCmp            0      0.00%     80.26% # Class of committed instruction
system.switch_cpus3.commit.committedInstType_0::SimdAes            0      0.00%     80.26% # Class of committed instruction
system.switch_cpus3.commit.committedInstType_0::SimdAesMix            0      0.00%     80.26% # Class of committed instruction
system.switch_cpus3.commit.committedInstType_0::SimdSha1Hash            0      0.00%     80.26% # Class of committed instruction
system.switch_cpus3.commit.committedInstType_0::SimdSha1Hash2            0      0.00%     80.26% # Class of committed instruction
system.switch_cpus3.commit.committedInstType_0::SimdSha256Hash            0      0.00%     80.26% # Class of committed instruction
system.switch_cpus3.commit.committedInstType_0::SimdSha256Hash2            0      0.00%     80.26% # Class of committed instruction
system.switch_cpus3.commit.committedInstType_0::SimdShaSigma2            0      0.00%     80.26% # Class of committed instruction
system.switch_cpus3.commit.committedInstType_0::SimdShaSigma3            0      0.00%     80.26% # Class of committed instruction
system.switch_cpus3.commit.committedInstType_0::SimdPredAlu            0      0.00%     80.26% # Class of committed instruction
system.switch_cpus3.commit.committedInstType_0::MemRead      8096134      2.82%     83.07% # Class of committed instruction
system.switch_cpus3.commit.committedInstType_0::MemWrite      3000611      1.04%     84.12% # Class of committed instruction
system.switch_cpus3.commit.committedInstType_0::FloatMemRead     38024039     13.23%     97.34% # Class of committed instruction
system.switch_cpus3.commit.committedInstType_0::FloatMemWrite      7640472      2.66%    100.00% # Class of committed instruction
system.switch_cpus3.commit.committedInstType_0::IprAccess            0      0.00%    100.00% # Class of committed instruction
system.switch_cpus3.commit.committedInstType_0::InstPrefetch            0      0.00%    100.00% # Class of committed instruction
system.switch_cpus3.commit.committedInstType_0::total    287487155                       # Class of committed instruction
system.switch_cpus3.commit.commitEligibleSamples     25155403                       # number cycles where commit BW limit reached
system.switch_cpus3.decode.idleCycles         8124062                       # Number of cycles decode is idle
system.switch_cpus3.decode.blockedCycles     50703376                       # Number of cycles decode is blocked
system.switch_cpus3.decode.runCycles         25461517                       # Number of cycles decode is running
system.switch_cpus3.decode.unblockCycles     15483010                       # Number of cycles decode is unblocking
system.switch_cpus3.decode.squashCycles        208882                       # Number of cycles decode is squashing
system.switch_cpus3.decode.branchResolved      8715263                       # Number of times decode resolved a  branch
system.switch_cpus3.decode.branchMispred           42                       # Number of times decode detected a branch misprediction
system.switch_cpus3.decode.decodedInsts     314369411                       # Number of instructions handled by decode
system.switch_cpus3.decode.squashedInsts          171                       # Number of squashed instructions handled by decode
system.switch_cpus3.dtb.rdAccesses           48133563                       # TLB accesses on read requests
system.switch_cpus3.dtb.wrAccesses           12964234                       # TLB accesses on write requests
system.switch_cpus3.dtb.rdMisses                47557                       # TLB misses on read requests
system.switch_cpus3.dtb.wrMisses                    0                       # TLB misses on write requests
system.switch_cpus3.dtb.walker.power_state.pwrStateResidencyTicks::UNDEFINED 16848450475542                       # Cumulative time (in ticks) in various power states
system.switch_cpus3.fetch.icacheStallCycles       208036                       # Number of cycles fetch is stalled on an Icache miss
system.switch_cpus3.fetch.insts             208714772                       # Number of instructions fetch has processed
system.switch_cpus3.fetch.branches           20335384                       # Number of branches that fetch encountered
system.switch_cpus3.fetch.predictedBranches      9552384                       # Number of branches that fetch has predicted taken
system.switch_cpus3.fetch.cycles             99563890                       # Number of cycles fetch has run and was not squashing or blocked
system.switch_cpus3.fetch.squashCycles         417848                       # Number of cycles fetch has spent squashing
system.switch_cpus3.fetch.cacheLines         23700129                       # Number of cache lines fetched
system.switch_cpus3.fetch.icacheSquashes           60                       # Number of outstanding Icache misses that were squashed
system.switch_cpus3.fetch.nisnDist::samples     99980850                       # Number of instructions fetched each cycle (Total)
system.switch_cpus3.fetch.nisnDist::mean     3.190122                       # Number of instructions fetched each cycle (Total)
system.switch_cpus3.fetch.nisnDist::stdev     3.453861                       # Number of instructions fetched each cycle (Total)
system.switch_cpus3.fetch.nisnDist::underflows            0      0.00%      0.00% # Number of instructions fetched each cycle (Total)
system.switch_cpus3.fetch.nisnDist::0        44719970     44.73%     44.73% # Number of instructions fetched each cycle (Total)
system.switch_cpus3.fetch.nisnDist::1         4623266      4.62%     49.35% # Number of instructions fetched each cycle (Total)
system.switch_cpus3.fetch.nisnDist::2         4874947      4.88%     54.23% # Number of instructions fetched each cycle (Total)
system.switch_cpus3.fetch.nisnDist::3         4265224      4.27%     58.49% # Number of instructions fetched each cycle (Total)
system.switch_cpus3.fetch.nisnDist::4         5586372      5.59%     64.08% # Number of instructions fetched each cycle (Total)
system.switch_cpus3.fetch.nisnDist::5         4003483      4.00%     68.09% # Number of instructions fetched each cycle (Total)
system.switch_cpus3.fetch.nisnDist::6         1867651      1.87%     69.95% # Number of instructions fetched each cycle (Total)
system.switch_cpus3.fetch.nisnDist::7         2106064      2.11%     72.06% # Number of instructions fetched each cycle (Total)
system.switch_cpus3.fetch.nisnDist::8        27933873     27.94%    100.00% # Number of instructions fetched each cycle (Total)
system.switch_cpus3.fetch.nisnDist::overflows            0      0.00%    100.00% # Number of instructions fetched each cycle (Total)
system.switch_cpus3.fetch.nisnDist::min_value            0                       # Number of instructions fetched each cycle (Total)
system.switch_cpus3.fetch.nisnDist::max_value            8                       # Number of instructions fetched each cycle (Total)
system.switch_cpus3.fetch.nisnDist::total     99980850                       # Number of instructions fetched each cycle (Total)
system.switch_cpus3.fetch.branchRate         0.203356                       # Number of branch fetches per cycle
system.switch_cpus3.fetch.rate               2.087173                       # Number of inst fetches per cycle
system.switch_cpus3.itb.rdAccesses                  0                       # TLB accesses on read requests
system.switch_cpus3.itb.wrAccesses           23700129                       # TLB accesses on write requests
system.switch_cpus3.itb.rdMisses                    0                       # TLB misses on read requests
system.switch_cpus3.itb.wrMisses                   10                       # TLB misses on write requests
system.switch_cpus3.itb.walker.power_state.pwrStateResidencyTicks::UNDEFINED 16848450475542                       # Cumulative time (in ticks) in various power states
system.switch_cpus3.lsq0.forwLoads             369176                       # Number of loads that had data forwarded from stores
system.switch_cpus3.lsq0.squashedLoads        2809242                       # Number of loads squashed
system.switch_cpus3.lsq0.ignoredResponses            8                       # Number of memory responses ignored because the instruction is squashed
system.switch_cpus3.lsq0.memOrderViolation          460                       # Number of memory ordering violations
system.switch_cpus3.lsq0.squashedStores       2762664                       # Number of stores squashed
system.switch_cpus3.lsq0.rescheduledLoads            0                       # Number of loads that were rescheduled
system.switch_cpus3.lsq0.blockedByCache             0                       # Number of times an access to memory failed due to the cache being blocked
system.switch_cpus3.power_state.pwrStateResidencyTicks::OFF  33299607060                       # Cumulative time (in ticks) in various power states
system.switch_cpus3.rename.squashCycles        208882                       # Number of cycles rename is squashing
system.switch_cpus3.rename.idleCycles        13341334                       # Number of cycles rename is idle
system.switch_cpus3.rename.blockCycles       29404443                       # Number of cycles rename is blocking
system.switch_cpus3.rename.serializeStallCycles            0                       # count of cycles rename stalledfor serializing inst
system.switch_cpus3.rename.runCycles         35558982                       # Number of cycles rename is running
system.switch_cpus3.rename.unblockCycles     21467206                       # Number of cycles rename is unblocking
system.switch_cpus3.rename.renamedInsts     312981928                       # Number of instructions processed by rename
system.switch_cpus3.rename.ROBFullEvents        40540                       # Number of times rename has blocked due to ROB full
system.switch_cpus3.rename.IQFullEvents      15331036                       # Number of times rename has blocked due to IQ full
system.switch_cpus3.rename.LQFullEvents       2118972                       # Number of times rename has blocked due to LQ full
system.switch_cpus3.rename.SQFullEvents            30                       # Number of times rename has blocked due to SQ full
system.switch_cpus3.rename.renamedOperands    328710552                       # Number of destination operands rename has renamed
system.switch_cpus3.rename.lookups          818553616                       # Number of register rename lookups that rename has made
system.switch_cpus3.rename.intLookups       259511533                       # Number of integer rename lookups
system.switch_cpus3.rename.fpLookups        324081102                       # Number of floating rename lookups
system.switch_cpus3.rename.committedMaps    302586567                       # Number of HB maps that are committed
system.switch_cpus3.rename.undoneMaps        26123885                       # Number of HB maps that are undone due to squashing
system.switch_cpus3.rename.serializing              0                       # count of serializing insts renamed
system.switch_cpus3.rename.tempSerializing            0                       # count of temporary serializing insts renamed
system.switch_cpus3.rename.skidInsts         63710305                       # count of insts added to the skid buffer
system.switch_cpus3.rob.reads               382469239                       # The number of ROB reads
system.switch_cpus3.rob.writes              624232438                       # The number of ROB writes
system.switch_cpus3.thread0.numInsts        188594198                       # Number of Instructions committed
system.switch_cpus3.thread0.numOps          287487155                       # Number of Ops committed
system.switch_cpus3.thread0.numMemRefs              0                       # Number of Memory References
system.voltage_domain.voltage                       1                       # Voltage in Volts

---------- End Simulation Statistics   ----------
