
---------- Begin Simulation Statistics ----------
final_tick                               16848449478873                       # Number of ticks from beginning of simulation (restored from checkpoints and never reset)
host_inst_rate                                 149602                       # Simulator instruction rate (inst/s)
host_mem_usage                               17213600                       # Number of bytes of host memory used
host_op_rate                                   256279                       # Simulator op (including micro ops) rate (op/s)
host_seconds                                  4250.79                       # Real time elapsed on the host
host_tick_rate                                7833507                       # Simulator tick rate (ticks/s)
sim_freq                                 1000000000000                       # Frequency of simulated ticks
sim_insts                                   635926118                       # Number of instructions simulated
sim_ops                                    1089387086                       # Number of ops (including micro ops) simulated
sim_seconds                                  0.033299                       # Number of seconds simulated
sim_ticks                                 33298572762                       # Number of ticks simulated
system.cpu0.Branches                                1                       # Number of branches fetched
system.cpu0.committedInsts                         14                       # Number of instructions committed
system.cpu0.committedOps                           23                       # Number of ops (including micro ops) committed
system.cpu0.idle_fraction                           0                       # Percentage of idle cycles
system.cpu0.l2bus.snoop_filter.hit_multi_requests          643                       # Number of requests hitting in the snoop filter with multiple (>1) holders of the requested data.
system.cpu0.l2bus.snoop_filter.hit_multi_snoops            0                       # Number of snoops hitting in the snoop filter with multiple (>1) holders of the requested data.
system.cpu0.l2bus.snoop_filter.hit_single_requests      1457645                       # Number of requests hitting in the snoop filter with a single holder of the requested data.
system.cpu0.l2bus.snoop_filter.hit_single_snoops         2227                       # Number of snoops hitting in the snoop filter with a single holder of the requested data.
system.cpu0.l2bus.snoop_filter.tot_requests      2916265                       # Total number of requests made to the snoop filter.
system.cpu0.l2bus.snoop_filter.tot_snoops         2227                       # Total number of snoops made to the snoop filter.
system.cpu0.mmucache.mmubus.snoop_filter.hit_multi_requests            0                       # Number of requests hitting in the snoop filter with multiple (>1) holders of the requested data.
system.cpu0.mmucache.mmubus.snoop_filter.hit_multi_snoops            0                       # Number of snoops hitting in the snoop filter with multiple (>1) holders of the requested data.
system.cpu0.mmucache.mmubus.snoop_filter.hit_single_requests            0                       # Number of requests hitting in the snoop filter with a single holder of the requested data.
system.cpu0.mmucache.mmubus.snoop_filter.hit_single_snoops            0                       # Number of snoops hitting in the snoop filter with a single holder of the requested data.
system.cpu0.mmucache.mmubus.snoop_filter.tot_requests            0                       # Total number of requests made to the snoop filter.
system.cpu0.mmucache.mmubus.snoop_filter.tot_snoops            0                       # Total number of snoops made to the snoop filter.
system.cpu0.not_idle_fraction                       1                       # Percentage of non-idle cycles
system.cpu0.numCycles                              31                       # number of cpu cycles simulated
system.cpu0.numWorkItemsCompleted                   0                       # number of work items this cpu completed
system.cpu0.numWorkItemsStarted                     0                       # number of work items this cpu started
system.cpu0.num_busy_cycles                        31                       # Number of busy cycles
system.cpu0.num_conditional_control_insts            0                       # number of instructions that are conditional controls
system.cpu0.num_fp_alu_accesses                    17                       # Number of float alu accesses
system.cpu0.num_fp_insts                           17                       # number of float instructions
system.cpu0.num_fp_register_reads                  33                       # number of times the floating registers were read
system.cpu0.num_fp_register_writes                 17                       # number of times the floating registers were written
system.cpu0.num_func_calls                          1                       # number of times a function call or return occured
system.cpu0.num_idle_cycles                         0                       # Number of idle cycles
system.cpu0.num_int_alu_accesses                   10                       # Number of integer alu accesses
system.cpu0.num_int_insts                          10                       # number of integer instructions
system.cpu0.num_int_register_reads                 24                       # number of times the integer registers were read
system.cpu0.num_int_register_writes                 4                       # number of times the integer registers were written
system.cpu0.num_load_insts                          5                       # Number of load instructions
system.cpu0.num_mem_refs                            6                       # number of memory refs
system.cpu0.num_store_insts                         1                       # Number of store instructions
system.cpu0.num_vec_alu_accesses                    0                       # Number of vector alu accesses
system.cpu0.num_vec_insts                           0                       # number of vector instructions
system.cpu0.num_vec_register_reads                  0                       # number of times the vector registers were read
system.cpu0.num_vec_register_writes                 0                       # number of times the vector registers were written
system.cpu0.op_class::No_OpClass                    0      0.00%      0.00% # Class of executed instruction
system.cpu0.op_class::IntAlu                        4     17.39%     17.39% # Class of executed instruction
system.cpu0.op_class::IntMult                       0      0.00%     17.39% # Class of executed instruction
system.cpu0.op_class::IntDiv                        0      0.00%     17.39% # Class of executed instruction
system.cpu0.op_class::FloatAdd                      1      4.35%     21.74% # Class of executed instruction
system.cpu0.op_class::FloatCmp                      0      0.00%     21.74% # Class of executed instruction
system.cpu0.op_class::FloatCvt                      0      0.00%     21.74% # Class of executed instruction
system.cpu0.op_class::FloatMult                     0      0.00%     21.74% # Class of executed instruction
system.cpu0.op_class::FloatMultAcc                  0      0.00%     21.74% # Class of executed instruction
system.cpu0.op_class::FloatDiv                      0      0.00%     21.74% # Class of executed instruction
system.cpu0.op_class::FloatMisc                     0      0.00%     21.74% # Class of executed instruction
system.cpu0.op_class::FloatSqrt                     0      0.00%     21.74% # Class of executed instruction
system.cpu0.op_class::SimdAdd                       0      0.00%     21.74% # Class of executed instruction
system.cpu0.op_class::SimdAddAcc                    0      0.00%     21.74% # Class of executed instruction
system.cpu0.op_class::SimdAlu                       2      8.70%     30.43% # Class of executed instruction
system.cpu0.op_class::SimdCmp                       0      0.00%     30.43% # Class of executed instruction
system.cpu0.op_class::SimdCvt                       0      0.00%     30.43% # Class of executed instruction
system.cpu0.op_class::SimdMisc                      0      0.00%     30.43% # Class of executed instruction
system.cpu0.op_class::SimdMult                      0      0.00%     30.43% # Class of executed instruction
system.cpu0.op_class::SimdMultAcc                   0      0.00%     30.43% # Class of executed instruction
system.cpu0.op_class::SimdShift                     0      0.00%     30.43% # Class of executed instruction
system.cpu0.op_class::SimdShiftAcc                  0      0.00%     30.43% # Class of executed instruction
system.cpu0.op_class::SimdDiv                       0      0.00%     30.43% # Class of executed instruction
system.cpu0.op_class::SimdSqrt                      0      0.00%     30.43% # Class of executed instruction
system.cpu0.op_class::SimdFloatAdd                  4     17.39%     47.83% # Class of executed instruction
system.cpu0.op_class::SimdFloatAlu                  0      0.00%     47.83% # Class of executed instruction
system.cpu0.op_class::SimdFloatCmp                  0      0.00%     47.83% # Class of executed instruction
system.cpu0.op_class::SimdFloatCvt                  1      4.35%     52.17% # Class of executed instruction
system.cpu0.op_class::SimdFloatDiv                  0      0.00%     52.17% # Class of executed instruction
system.cpu0.op_class::SimdFloatMisc                 0      0.00%     52.17% # Class of executed instruction
system.cpu0.op_class::SimdFloatMult                 5     21.74%     73.91% # Class of executed instruction
system.cpu0.op_class::SimdFloatMultAcc              0      0.00%     73.91% # Class of executed instruction
system.cpu0.op_class::SimdFloatSqrt                 0      0.00%     73.91% # Class of executed instruction
system.cpu0.op_class::SimdReduceAdd                 0      0.00%     73.91% # Class of executed instruction
system.cpu0.op_class::SimdReduceAlu                 0      0.00%     73.91% # Class of executed instruction
system.cpu0.op_class::SimdReduceCmp                 0      0.00%     73.91% # Class of executed instruction
system.cpu0.op_class::SimdFloatReduceAdd            0      0.00%     73.91% # Class of executed instruction
system.cpu0.op_class::SimdFloatReduceCmp            0      0.00%     73.91% # Class of executed instruction
system.cpu0.op_class::SimdAes                       0      0.00%     73.91% # Class of executed instruction
system.cpu0.op_class::SimdAesMix                    0      0.00%     73.91% # Class of executed instruction
system.cpu0.op_class::SimdSha1Hash                  0      0.00%     73.91% # Class of executed instruction
system.cpu0.op_class::SimdSha1Hash2                 0      0.00%     73.91% # Class of executed instruction
system.cpu0.op_class::SimdSha256Hash                0      0.00%     73.91% # Class of executed instruction
system.cpu0.op_class::SimdSha256Hash2               0      0.00%     73.91% # Class of executed instruction
system.cpu0.op_class::SimdShaSigma2                 0      0.00%     73.91% # Class of executed instruction
system.cpu0.op_class::SimdShaSigma3                 0      0.00%     73.91% # Class of executed instruction
system.cpu0.op_class::SimdPredAlu                   0      0.00%     73.91% # Class of executed instruction
system.cpu0.op_class::MemRead                       1      4.35%     78.26% # Class of executed instruction
system.cpu0.op_class::MemWrite                      1      4.35%     82.61% # Class of executed instruction
system.cpu0.op_class::FloatMemRead                  4     17.39%    100.00% # Class of executed instruction
system.cpu0.op_class::FloatMemWrite                 0      0.00%    100.00% # Class of executed instruction
system.cpu0.op_class::IprAccess                     0      0.00%    100.00% # Class of executed instruction
system.cpu0.op_class::InstPrefetch                  0      0.00%    100.00% # Class of executed instruction
system.cpu0.op_class::total                        23                       # Class of executed instruction
system.cpu0.workload.numSyscalls                    0                       # Number of system calls
system.cpu1.Branches                                1                       # Number of branches fetched
system.cpu1.committedInsts                         15                       # Number of instructions committed
system.cpu1.committedOps                           24                       # Number of ops (including micro ops) committed
system.cpu1.idle_fraction                           0                       # Percentage of idle cycles
system.cpu1.l2bus.snoop_filter.hit_multi_requests        38016                       # Number of requests hitting in the snoop filter with multiple (>1) holders of the requested data.
system.cpu1.l2bus.snoop_filter.hit_multi_snoops            0                       # Number of snoops hitting in the snoop filter with multiple (>1) holders of the requested data.
system.cpu1.l2bus.snoop_filter.hit_single_requests      1743656                       # Number of requests hitting in the snoop filter with a single holder of the requested data.
system.cpu1.l2bus.snoop_filter.hit_single_snoops            0                       # Number of snoops hitting in the snoop filter with a single holder of the requested data.
system.cpu1.l2bus.snoop_filter.tot_requests      3488299                       # Total number of requests made to the snoop filter.
system.cpu1.l2bus.snoop_filter.tot_snoops            0                       # Total number of snoops made to the snoop filter.
system.cpu1.mmucache.mmubus.snoop_filter.hit_multi_requests            0                       # Number of requests hitting in the snoop filter with multiple (>1) holders of the requested data.
system.cpu1.mmucache.mmubus.snoop_filter.hit_multi_snoops            0                       # Number of snoops hitting in the snoop filter with multiple (>1) holders of the requested data.
system.cpu1.mmucache.mmubus.snoop_filter.hit_single_requests            0                       # Number of requests hitting in the snoop filter with a single holder of the requested data.
system.cpu1.mmucache.mmubus.snoop_filter.hit_single_snoops            0                       # Number of snoops hitting in the snoop filter with a single holder of the requested data.
system.cpu1.mmucache.mmubus.snoop_filter.tot_requests            0                       # Total number of requests made to the snoop filter.
system.cpu1.mmucache.mmubus.snoop_filter.tot_snoops            0                       # Total number of snoops made to the snoop filter.
system.cpu1.not_idle_fraction                       1                       # Percentage of non-idle cycles
system.cpu1.numCycles                              30                       # number of cpu cycles simulated
system.cpu1.numWorkItemsCompleted                   0                       # number of work items this cpu completed
system.cpu1.numWorkItemsStarted                     0                       # number of work items this cpu started
system.cpu1.num_busy_cycles                        30                       # Number of busy cycles
system.cpu1.num_cc_register_reads                   8                       # number of times the CC registers were read
system.cpu1.num_cc_register_writes                  8                       # number of times the CC registers were written
system.cpu1.num_conditional_control_insts            1                       # number of instructions that are conditional controls
system.cpu1.num_fp_alu_accesses                     1                       # Number of float alu accesses
system.cpu1.num_fp_insts                            1                       # number of float instructions
system.cpu1.num_fp_register_reads                   0                       # number of times the floating registers were read
system.cpu1.num_fp_register_writes                  1                       # number of times the floating registers were written
system.cpu1.num_func_calls                          0                       # number of times a function call or return occured
system.cpu1.num_idle_cycles                         0                       # Number of idle cycles
system.cpu1.num_int_alu_accesses                   24                       # Number of integer alu accesses
system.cpu1.num_int_insts                          24                       # number of integer instructions
system.cpu1.num_int_register_reads                 56                       # number of times the integer registers were read
system.cpu1.num_int_register_writes                17                       # number of times the integer registers were written
system.cpu1.num_load_insts                          4                       # Number of load instructions
system.cpu1.num_mem_refs                            9                       # number of memory refs
system.cpu1.num_store_insts                         5                       # Number of store instructions
system.cpu1.num_vec_alu_accesses                    0                       # Number of vector alu accesses
system.cpu1.num_vec_insts                           0                       # number of vector instructions
system.cpu1.num_vec_register_reads                  0                       # number of times the vector registers were read
system.cpu1.num_vec_register_writes                 0                       # number of times the vector registers were written
system.cpu1.op_class::No_OpClass                    0      0.00%      0.00% # Class of executed instruction
system.cpu1.op_class::IntAlu                       15     62.50%     62.50% # Class of executed instruction
system.cpu1.op_class::IntMult                       0      0.00%     62.50% # Class of executed instruction
system.cpu1.op_class::IntDiv                        0      0.00%     62.50% # Class of executed instruction
system.cpu1.op_class::FloatAdd                      0      0.00%     62.50% # Class of executed instruction
system.cpu1.op_class::FloatCmp                      0      0.00%     62.50% # Class of executed instruction
system.cpu1.op_class::FloatCvt                      0      0.00%     62.50% # Class of executed instruction
system.cpu1.op_class::FloatMult                     0      0.00%     62.50% # Class of executed instruction
system.cpu1.op_class::FloatMultAcc                  0      0.00%     62.50% # Class of executed instruction
system.cpu1.op_class::FloatDiv                      0      0.00%     62.50% # Class of executed instruction
system.cpu1.op_class::FloatMisc                     0      0.00%     62.50% # Class of executed instruction
system.cpu1.op_class::FloatSqrt                     0      0.00%     62.50% # Class of executed instruction
system.cpu1.op_class::SimdAdd                       0      0.00%     62.50% # Class of executed instruction
system.cpu1.op_class::SimdAddAcc                    0      0.00%     62.50% # Class of executed instruction
system.cpu1.op_class::SimdAlu                       0      0.00%     62.50% # Class of executed instruction
system.cpu1.op_class::SimdCmp                       0      0.00%     62.50% # Class of executed instruction
system.cpu1.op_class::SimdCvt                       0      0.00%     62.50% # Class of executed instruction
system.cpu1.op_class::SimdMisc                      0      0.00%     62.50% # Class of executed instruction
system.cpu1.op_class::SimdMult                      0      0.00%     62.50% # Class of executed instruction
system.cpu1.op_class::SimdMultAcc                   0      0.00%     62.50% # Class of executed instruction
system.cpu1.op_class::SimdShift                     0      0.00%     62.50% # Class of executed instruction
system.cpu1.op_class::SimdShiftAcc                  0      0.00%     62.50% # Class of executed instruction
system.cpu1.op_class::SimdDiv                       0      0.00%     62.50% # Class of executed instruction
system.cpu1.op_class::SimdSqrt                      0      0.00%     62.50% # Class of executed instruction
system.cpu1.op_class::SimdFloatAdd                  0      0.00%     62.50% # Class of executed instruction
system.cpu1.op_class::SimdFloatAlu                  0      0.00%     62.50% # Class of executed instruction
system.cpu1.op_class::SimdFloatCmp                  0      0.00%     62.50% # Class of executed instruction
system.cpu1.op_class::SimdFloatCvt                  0      0.00%     62.50% # Class of executed instruction
system.cpu1.op_class::SimdFloatDiv                  0      0.00%     62.50% # Class of executed instruction
system.cpu1.op_class::SimdFloatMisc                 0      0.00%     62.50% # Class of executed instruction
system.cpu1.op_class::SimdFloatMult                 0      0.00%     62.50% # Class of executed instruction
system.cpu1.op_class::SimdFloatMultAcc              0      0.00%     62.50% # Class of executed instruction
system.cpu1.op_class::SimdFloatSqrt                 0      0.00%     62.50% # Class of executed instruction
system.cpu1.op_class::SimdReduceAdd                 0      0.00%     62.50% # Class of executed instruction
system.cpu1.op_class::SimdReduceAlu                 0      0.00%     62.50% # Class of executed instruction
system.cpu1.op_class::SimdReduceCmp                 0      0.00%     62.50% # Class of executed instruction
system.cpu1.op_class::SimdFloatReduceAdd            0      0.00%     62.50% # Class of executed instruction
system.cpu1.op_class::SimdFloatReduceCmp            0      0.00%     62.50% # Class of executed instruction
system.cpu1.op_class::SimdAes                       0      0.00%     62.50% # Class of executed instruction
system.cpu1.op_class::SimdAesMix                    0      0.00%     62.50% # Class of executed instruction
system.cpu1.op_class::SimdSha1Hash                  0      0.00%     62.50% # Class of executed instruction
system.cpu1.op_class::SimdSha1Hash2                 0      0.00%     62.50% # Class of executed instruction
system.cpu1.op_class::SimdSha256Hash                0      0.00%     62.50% # Class of executed instruction
system.cpu1.op_class::SimdSha256Hash2               0      0.00%     62.50% # Class of executed instruction
system.cpu1.op_class::SimdShaSigma2                 0      0.00%     62.50% # Class of executed instruction
system.cpu1.op_class::SimdShaSigma3                 0      0.00%     62.50% # Class of executed instruction
system.cpu1.op_class::SimdPredAlu                   0      0.00%     62.50% # Class of executed instruction
system.cpu1.op_class::MemRead                       3     12.50%     75.00% # Class of executed instruction
system.cpu1.op_class::MemWrite                      5     20.83%     95.83% # Class of executed instruction
system.cpu1.op_class::FloatMemRead                  1      4.17%    100.00% # Class of executed instruction
system.cpu1.op_class::FloatMemWrite                 0      0.00%    100.00% # Class of executed instruction
system.cpu1.op_class::IprAccess                     0      0.00%    100.00% # Class of executed instruction
system.cpu1.op_class::InstPrefetch                  0      0.00%    100.00% # Class of executed instruction
system.cpu1.op_class::total                        24                       # Class of executed instruction
system.cpu1.workload.numSyscalls                    2                       # Number of system calls
system.cpu2.Branches                                2                       # Number of branches fetched
system.cpu2.committedInsts                         16                       # Number of instructions committed
system.cpu2.committedOps                           24                       # Number of ops (including micro ops) committed
system.cpu2.idle_fraction                           0                       # Percentage of idle cycles
system.cpu2.l2bus.snoop_filter.hit_multi_requests           93                       # Number of requests hitting in the snoop filter with multiple (>1) holders of the requested data.
system.cpu2.l2bus.snoop_filter.hit_multi_snoops            0                       # Number of snoops hitting in the snoop filter with multiple (>1) holders of the requested data.
system.cpu2.l2bus.snoop_filter.hit_single_requests      2409361                       # Number of requests hitting in the snoop filter with a single holder of the requested data.
system.cpu2.l2bus.snoop_filter.hit_single_snoops          311                       # Number of snoops hitting in the snoop filter with a single holder of the requested data.
system.cpu2.l2bus.snoop_filter.tot_requests      4803568                       # Total number of requests made to the snoop filter.
system.cpu2.l2bus.snoop_filter.tot_snoops          311                       # Total number of snoops made to the snoop filter.
system.cpu2.mmucache.mmubus.snoop_filter.hit_multi_requests            0                       # Number of requests hitting in the snoop filter with multiple (>1) holders of the requested data.
system.cpu2.mmucache.mmubus.snoop_filter.hit_multi_snoops            0                       # Number of snoops hitting in the snoop filter with multiple (>1) holders of the requested data.
system.cpu2.mmucache.mmubus.snoop_filter.hit_single_requests            0                       # Number of requests hitting in the snoop filter with a single holder of the requested data.
system.cpu2.mmucache.mmubus.snoop_filter.hit_single_snoops            0                       # Number of snoops hitting in the snoop filter with a single holder of the requested data.
system.cpu2.mmucache.mmubus.snoop_filter.tot_requests            0                       # Total number of requests made to the snoop filter.
system.cpu2.mmucache.mmubus.snoop_filter.tot_snoops            0                       # Total number of snoops made to the snoop filter.
system.cpu2.not_idle_fraction                       1                       # Percentage of non-idle cycles
system.cpu2.numCycles                              30                       # number of cpu cycles simulated
system.cpu2.numWorkItemsCompleted                   0                       # number of work items this cpu completed
system.cpu2.numWorkItemsStarted                     0                       # number of work items this cpu started
system.cpu2.num_busy_cycles                        30                       # Number of busy cycles
system.cpu2.num_cc_register_reads                  12                       # number of times the CC registers were read
system.cpu2.num_cc_register_writes                 12                       # number of times the CC registers were written
system.cpu2.num_conditional_control_insts            2                       # number of instructions that are conditional controls
system.cpu2.num_fp_alu_accesses                     0                       # Number of float alu accesses
system.cpu2.num_fp_insts                            0                       # number of float instructions
system.cpu2.num_fp_register_reads                   0                       # number of times the floating registers were read
system.cpu2.num_fp_register_writes                  0                       # number of times the floating registers were written
system.cpu2.num_func_calls                          0                       # number of times a function call or return occured
system.cpu2.num_idle_cycles                         0                       # Number of idle cycles
system.cpu2.num_int_alu_accesses                   24                       # Number of integer alu accesses
system.cpu2.num_int_insts                          24                       # number of integer instructions
system.cpu2.num_int_register_reads                 56                       # number of times the integer registers were read
system.cpu2.num_int_register_writes                19                       # number of times the integer registers were written
system.cpu2.num_load_insts                          7                       # Number of load instructions
system.cpu2.num_mem_refs                           10                       # number of memory refs
system.cpu2.num_store_insts                         3                       # Number of store instructions
system.cpu2.num_vec_alu_accesses                    0                       # Number of vector alu accesses
system.cpu2.num_vec_insts                           0                       # number of vector instructions
system.cpu2.num_vec_register_reads                  0                       # number of times the vector registers were read
system.cpu2.num_vec_register_writes                 0                       # number of times the vector registers were written
system.cpu2.op_class::No_OpClass                    0      0.00%      0.00% # Class of executed instruction
system.cpu2.op_class::IntAlu                       14     58.33%     58.33% # Class of executed instruction
system.cpu2.op_class::IntMult                       0      0.00%     58.33% # Class of executed instruction
system.cpu2.op_class::IntDiv                        0      0.00%     58.33% # Class of executed instruction
system.cpu2.op_class::FloatAdd                      0      0.00%     58.33% # Class of executed instruction
system.cpu2.op_class::FloatCmp                      0      0.00%     58.33% # Class of executed instruction
system.cpu2.op_class::FloatCvt                      0      0.00%     58.33% # Class of executed instruction
system.cpu2.op_class::FloatMult                     0      0.00%     58.33% # Class of executed instruction
system.cpu2.op_class::FloatMultAcc                  0      0.00%     58.33% # Class of executed instruction
system.cpu2.op_class::FloatDiv                      0      0.00%     58.33% # Class of executed instruction
system.cpu2.op_class::FloatMisc                     0      0.00%     58.33% # Class of executed instruction
system.cpu2.op_class::FloatSqrt                     0      0.00%     58.33% # Class of executed instruction
system.cpu2.op_class::SimdAdd                       0      0.00%     58.33% # Class of executed instruction
system.cpu2.op_class::SimdAddAcc                    0      0.00%     58.33% # Class of executed instruction
system.cpu2.op_class::SimdAlu                       0      0.00%     58.33% # Class of executed instruction
system.cpu2.op_class::SimdCmp                       0      0.00%     58.33% # Class of executed instruction
system.cpu2.op_class::SimdCvt                       0      0.00%     58.33% # Class of executed instruction
system.cpu2.op_class::SimdMisc                      0      0.00%     58.33% # Class of executed instruction
system.cpu2.op_class::SimdMult                      0      0.00%     58.33% # Class of executed instruction
system.cpu2.op_class::SimdMultAcc                   0      0.00%     58.33% # Class of executed instruction
system.cpu2.op_class::SimdShift                     0      0.00%     58.33% # Class of executed instruction
system.cpu2.op_class::SimdShiftAcc                  0      0.00%     58.33% # Class of executed instruction
system.cpu2.op_class::SimdDiv                       0      0.00%     58.33% # Class of executed instruction
system.cpu2.op_class::SimdSqrt                      0      0.00%     58.33% # Class of executed instruction
system.cpu2.op_class::SimdFloatAdd                  0      0.00%     58.33% # Class of executed instruction
system.cpu2.op_class::SimdFloatAlu                  0      0.00%     58.33% # Class of executed instruction
system.cpu2.op_class::SimdFloatCmp                  0      0.00%     58.33% # Class of executed instruction
system.cpu2.op_class::SimdFloatCvt                  0      0.00%     58.33% # Class of executed instruction
system.cpu2.op_class::SimdFloatDiv                  0      0.00%     58.33% # Class of executed instruction
system.cpu2.op_class::SimdFloatMisc                 0      0.00%     58.33% # Class of executed instruction
system.cpu2.op_class::SimdFloatMult                 0      0.00%     58.33% # Class of executed instruction
system.cpu2.op_class::SimdFloatMultAcc              0      0.00%     58.33% # Class of executed instruction
system.cpu2.op_class::SimdFloatSqrt                 0      0.00%     58.33% # Class of executed instruction
system.cpu2.op_class::SimdReduceAdd                 0      0.00%     58.33% # Class of executed instruction
system.cpu2.op_class::SimdReduceAlu                 0      0.00%     58.33% # Class of executed instruction
system.cpu2.op_class::SimdReduceCmp                 0      0.00%     58.33% # Class of executed instruction
system.cpu2.op_class::SimdFloatReduceAdd            0      0.00%     58.33% # Class of executed instruction
system.cpu2.op_class::SimdFloatReduceCmp            0      0.00%     58.33% # Class of executed instruction
system.cpu2.op_class::SimdAes                       0      0.00%     58.33% # Class of executed instruction
system.cpu2.op_class::SimdAesMix                    0      0.00%     58.33% # Class of executed instruction
system.cpu2.op_class::SimdSha1Hash                  0      0.00%     58.33% # Class of executed instruction
system.cpu2.op_class::SimdSha1Hash2                 0      0.00%     58.33% # Class of executed instruction
system.cpu2.op_class::SimdSha256Hash                0      0.00%     58.33% # Class of executed instruction
system.cpu2.op_class::SimdSha256Hash2               0      0.00%     58.33% # Class of executed instruction
system.cpu2.op_class::SimdShaSigma2                 0      0.00%     58.33% # Class of executed instruction
system.cpu2.op_class::SimdShaSigma3                 0      0.00%     58.33% # Class of executed instruction
system.cpu2.op_class::SimdPredAlu                   0      0.00%     58.33% # Class of executed instruction
system.cpu2.op_class::MemRead                       7     29.17%     87.50% # Class of executed instruction
system.cpu2.op_class::MemWrite                      3     12.50%    100.00% # Class of executed instruction
system.cpu2.op_class::FloatMemRead                  0      0.00%    100.00% # Class of executed instruction
system.cpu2.op_class::FloatMemWrite                 0      0.00%    100.00% # Class of executed instruction
system.cpu2.op_class::IprAccess                     0      0.00%    100.00% # Class of executed instruction
system.cpu2.op_class::InstPrefetch                  0      0.00%    100.00% # Class of executed instruction
system.cpu2.op_class::total                        24                       # Class of executed instruction
system.cpu2.workload.numSyscalls                    0                       # Number of system calls
system.cpu3.Branches                                1                       # Number of branches fetched
system.cpu3.committedInsts                         13                       # Number of instructions committed
system.cpu3.committedOps                           20                       # Number of ops (including micro ops) committed
system.cpu3.idle_fraction                           0                       # Percentage of idle cycles
system.cpu3.l2bus.snoop_filter.hit_multi_requests            0                       # Number of requests hitting in the snoop filter with multiple (>1) holders of the requested data.
system.cpu3.l2bus.snoop_filter.hit_multi_snoops            0                       # Number of snoops hitting in the snoop filter with multiple (>1) holders of the requested data.
system.cpu3.l2bus.snoop_filter.hit_single_requests      1958835                       # Number of requests hitting in the snoop filter with a single holder of the requested data.
system.cpu3.l2bus.snoop_filter.hit_single_snoops          285                       # Number of snoops hitting in the snoop filter with a single holder of the requested data.
system.cpu3.l2bus.snoop_filter.tot_requests      3913359                       # Total number of requests made to the snoop filter.
system.cpu3.l2bus.snoop_filter.tot_snoops          285                       # Total number of snoops made to the snoop filter.
system.cpu3.mmucache.mmubus.snoop_filter.hit_multi_requests            0                       # Number of requests hitting in the snoop filter with multiple (>1) holders of the requested data.
system.cpu3.mmucache.mmubus.snoop_filter.hit_multi_snoops            0                       # Number of snoops hitting in the snoop filter with multiple (>1) holders of the requested data.
system.cpu3.mmucache.mmubus.snoop_filter.hit_single_requests            0                       # Number of requests hitting in the snoop filter with a single holder of the requested data.
system.cpu3.mmucache.mmubus.snoop_filter.hit_single_snoops            0                       # Number of snoops hitting in the snoop filter with a single holder of the requested data.
system.cpu3.mmucache.mmubus.snoop_filter.tot_requests            0                       # Total number of requests made to the snoop filter.
system.cpu3.mmucache.mmubus.snoop_filter.tot_snoops            0                       # Total number of snoops made to the snoop filter.
system.cpu3.not_idle_fraction                       1                       # Percentage of non-idle cycles
system.cpu3.numCycles                              30                       # number of cpu cycles simulated
system.cpu3.numWorkItemsCompleted                   0                       # number of work items this cpu completed
system.cpu3.numWorkItemsStarted                     0                       # number of work items this cpu started
system.cpu3.num_busy_cycles                        30                       # Number of busy cycles
system.cpu3.num_cc_register_reads                   7                       # number of times the CC registers were read
system.cpu3.num_cc_register_writes                  2                       # number of times the CC registers were written
system.cpu3.num_conditional_control_insts            1                       # number of instructions that are conditional controls
system.cpu3.num_fp_alu_accesses                    13                       # Number of float alu accesses
system.cpu3.num_fp_insts                           13                       # number of float instructions
system.cpu3.num_fp_register_reads                  19                       # number of times the floating registers were read
system.cpu3.num_fp_register_writes                 12                       # number of times the floating registers were written
system.cpu3.num_func_calls                          0                       # number of times a function call or return occured
system.cpu3.num_idle_cycles                         0                       # Number of idle cycles
system.cpu3.num_int_alu_accesses                   13                       # Number of integer alu accesses
system.cpu3.num_int_insts                          13                       # number of integer instructions
system.cpu3.num_int_register_reads                 28                       # number of times the integer registers were read
system.cpu3.num_int_register_writes                 6                       # number of times the integer registers were written
system.cpu3.num_load_insts                          7                       # Number of load instructions
system.cpu3.num_mem_refs                            7                       # number of memory refs
system.cpu3.num_store_insts                         0                       # Number of store instructions
system.cpu3.num_vec_alu_accesses                    0                       # Number of vector alu accesses
system.cpu3.num_vec_insts                           0                       # number of vector instructions
system.cpu3.num_vec_register_reads                  0                       # number of times the vector registers were read
system.cpu3.num_vec_register_writes                 0                       # number of times the vector registers were written
system.cpu3.op_class::No_OpClass                    0      0.00%      0.00% # Class of executed instruction
system.cpu3.op_class::IntAlu                        7     35.00%     35.00% # Class of executed instruction
system.cpu3.op_class::IntMult                       0      0.00%     35.00% # Class of executed instruction
system.cpu3.op_class::IntDiv                        0      0.00%     35.00% # Class of executed instruction
system.cpu3.op_class::FloatAdd                      0      0.00%     35.00% # Class of executed instruction
system.cpu3.op_class::FloatCmp                      0      0.00%     35.00% # Class of executed instruction
system.cpu3.op_class::FloatCvt                      0      0.00%     35.00% # Class of executed instruction
system.cpu3.op_class::FloatMult                     0      0.00%     35.00% # Class of executed instruction
system.cpu3.op_class::FloatMultAcc                  0      0.00%     35.00% # Class of executed instruction
system.cpu3.op_class::FloatDiv                      0      0.00%     35.00% # Class of executed instruction
system.cpu3.op_class::FloatMisc                     0      0.00%     35.00% # Class of executed instruction
system.cpu3.op_class::FloatSqrt                     0      0.00%     35.00% # Class of executed instruction
system.cpu3.op_class::SimdAdd                       0      0.00%     35.00% # Class of executed instruction
system.cpu3.op_class::SimdAddAcc                    0      0.00%     35.00% # Class of executed instruction
system.cpu3.op_class::SimdAlu                       0      0.00%     35.00% # Class of executed instruction
system.cpu3.op_class::SimdCmp                       0      0.00%     35.00% # Class of executed instruction
system.cpu3.op_class::SimdCvt                       0      0.00%     35.00% # Class of executed instruction
system.cpu3.op_class::SimdMisc                      0      0.00%     35.00% # Class of executed instruction
system.cpu3.op_class::SimdMult                      0      0.00%     35.00% # Class of executed instruction
system.cpu3.op_class::SimdMultAcc                   0      0.00%     35.00% # Class of executed instruction
system.cpu3.op_class::SimdShift                     0      0.00%     35.00% # Class of executed instruction
system.cpu3.op_class::SimdShiftAcc                  0      0.00%     35.00% # Class of executed instruction
system.cpu3.op_class::SimdDiv                       0      0.00%     35.00% # Class of executed instruction
system.cpu3.op_class::SimdSqrt                      0      0.00%     35.00% # Class of executed instruction
system.cpu3.op_class::SimdFloatAdd                  2     10.00%     45.00% # Class of executed instruction
system.cpu3.op_class::SimdFloatAlu                  0      0.00%     45.00% # Class of executed instruction
system.cpu3.op_class::SimdFloatCmp                  0      0.00%     45.00% # Class of executed instruction
system.cpu3.op_class::SimdFloatCvt                  1      5.00%     50.00% # Class of executed instruction
system.cpu3.op_class::SimdFloatDiv                  1      5.00%     55.00% # Class of executed instruction
system.cpu3.op_class::SimdFloatMisc                 0      0.00%     55.00% # Class of executed instruction
system.cpu3.op_class::SimdFloatMult                 2     10.00%     65.00% # Class of executed instruction
system.cpu3.op_class::SimdFloatMultAcc              0      0.00%     65.00% # Class of executed instruction
system.cpu3.op_class::SimdFloatSqrt                 0      0.00%     65.00% # Class of executed instruction
system.cpu3.op_class::SimdReduceAdd                 0      0.00%     65.00% # Class of executed instruction
system.cpu3.op_class::SimdReduceAlu                 0      0.00%     65.00% # Class of executed instruction
system.cpu3.op_class::SimdReduceCmp                 0      0.00%     65.00% # Class of executed instruction
system.cpu3.op_class::SimdFloatReduceAdd            0      0.00%     65.00% # Class of executed instruction
system.cpu3.op_class::SimdFloatReduceCmp            0      0.00%     65.00% # Class of executed instruction
system.cpu3.op_class::SimdAes                       0      0.00%     65.00% # Class of executed instruction
system.cpu3.op_class::SimdAesMix                    0      0.00%     65.00% # Class of executed instruction
system.cpu3.op_class::SimdSha1Hash                  0      0.00%     65.00% # Class of executed instruction
system.cpu3.op_class::SimdSha1Hash2                 0      0.00%     65.00% # Class of executed instruction
system.cpu3.op_class::SimdSha256Hash                0      0.00%     65.00% # Class of executed instruction
system.cpu3.op_class::SimdSha256Hash2               0      0.00%     65.00% # Class of executed instruction
system.cpu3.op_class::SimdShaSigma2                 0      0.00%     65.00% # Class of executed instruction
system.cpu3.op_class::SimdShaSigma3                 0      0.00%     65.00% # Class of executed instruction
system.cpu3.op_class::SimdPredAlu                   0      0.00%     65.00% # Class of executed instruction
system.cpu3.op_class::MemRead                       1      5.00%     70.00% # Class of executed instruction
system.cpu3.op_class::MemWrite                      0      0.00%     70.00% # Class of executed instruction
system.cpu3.op_class::FloatMemRead                  6     30.00%    100.00% # Class of executed instruction
system.cpu3.op_class::FloatMemWrite                 0      0.00%    100.00% # Class of executed instruction
system.cpu3.op_class::IprAccess                     0      0.00%    100.00% # Class of executed instruction
system.cpu3.op_class::InstPrefetch                  0      0.00%    100.00% # Class of executed instruction
system.cpu3.op_class::total                        20                       # Class of executed instruction
system.cpu3.workload.numSyscalls                    0                       # Number of system calls
system.l3bus.snoop_filter.hit_multi_requests            0                       # Number of requests hitting in the snoop filter with multiple (>1) holders of the requested data.
system.l3bus.snoop_filter.hit_multi_snoops            0                       # Number of snoops hitting in the snoop filter with multiple (>1) holders of the requested data.
system.l3bus.snoop_filter.hit_single_requests      1369339                       # Number of requests hitting in the snoop filter with a single holder of the requested data.
system.l3bus.snoop_filter.hit_single_snoops            0                       # Number of snoops hitting in the snoop filter with a single holder of the requested data.
system.l3bus.snoop_filter.tot_requests        2754134                       # Total number of requests made to the snoop filter.
system.l3bus.snoop_filter.tot_snoops                0                       # Total number of snoops made to the snoop filter.
system.membus.snoop_filter.hit_multi_requests            0                       # Number of requests hitting in the snoop filter with multiple (>1) holders of the requested data.
system.membus.snoop_filter.hit_multi_snoops            0                       # Number of snoops hitting in the snoop filter with multiple (>1) holders of the requested data.
system.membus.snoop_filter.hit_single_requests       559430                       # Number of requests hitting in the snoop filter with a single holder of the requested data.
system.membus.snoop_filter.hit_single_snoops            0                       # Number of snoops hitting in the snoop filter with a single holder of the requested data.
system.membus.snoop_filter.tot_requests       1198491                       # Total number of requests made to the snoop filter.
system.membus.snoop_filter.tot_snoops               0                       # Total number of snoops made to the snoop filter.
system.switch_cpus0.cc_regfile_reads         50629953                       # number of cc regfile reads
system.switch_cpus0.cc_regfile_writes        45707653                       # number of cc regfile writes
system.switch_cpus0.committedInsts          126950018                       # Number of Instructions Simulated
system.switch_cpus0.committedOps            230041308                       # Number of Ops (including micro ops) Simulated
system.switch_cpus0.cpi                      0.787678                       # CPI: Cycles Per Instruction
system.switch_cpus0.cpi_total                0.787678                       # CPI: Total CPI of All Threads
system.switch_cpus0.fp_regfile_reads        170326925                       # number of floating regfile reads
system.switch_cpus0.fp_regfile_writes       105858413                       # number of floating regfile writes
system.switch_cpus0.idleCycles                 387503                       # Total number of cycles that the CPU has spent unscheduled due to idling
system.switch_cpus0.iew.branchMispredicts       110139                       # Number of branch mispredicts detected at execute
system.switch_cpus0.iew.exec_branches        12895748                       # Number of branches executed
system.switch_cpus0.iew.exec_nop                    0                       # number of nop insts executed
system.switch_cpus0.iew.exec_rate            2.342861                       # Inst execution rate
system.switch_cpus0.iew.exec_refs            46971170                       # number of memory reference insts executed
system.switch_cpus0.iew.exec_stores          10837016                       # Number of stores executed
system.switch_cpus0.iew.exec_swp                    0                       # number of swp insts executed
system.switch_cpus0.iew.iewBlockCycles        2001335                       # Number of cycles IEW is blocking
system.switch_cpus0.iew.iewDispLoadInsts     35072535                       # Number of dispatched load instructions
system.switch_cpus0.iew.iewDispNonSpecInsts          100                       # Number of dispatched non-speculative instructions
system.switch_cpus0.iew.iewDispSquashedInsts         6655                       # Number of squashed instructions skipped by dispatch
system.switch_cpus0.iew.iewDispStoreInsts     11015967                       # Number of dispatched store instructions
system.switch_cpus0.iew.iewDispatchedInsts    234758205                       # Number of instructions dispatched to IQ
system.switch_cpus0.iew.iewExecLoadInsts     36134154                       # Number of load instructions executed
system.switch_cpus0.iew.iewExecSquashedInsts       188449                       # Number of squashed instructions skipped in execute
system.switch_cpus0.iew.iewExecutedInsts    234276002                       # Number of executed instructions
system.switch_cpus0.iew.iewIQFullEvents          5287                       # Number of times the IQ has become full, causing a stall
system.switch_cpus0.iew.iewIdleCycles               0                       # Number of cycles IEW is idle
system.switch_cpus0.iew.iewLSQFullEvents     12220885                       # Number of times the LSQ has become full, causing a stall
system.switch_cpus0.iew.iewSquashCycles        111482                       # Number of cycles IEW is squashing
system.switch_cpus0.iew.iewUnblockCycles     12288189                       # Number of cycles IEW is unblocking
system.switch_cpus0.iew.memOrderViolationEvents         2739                       # Number of memory order violations
system.switch_cpus0.iew.predictedNotTakenIncorrect        71927                       # Number of branches that were predicted not taken incorrectly
system.switch_cpus0.iew.predictedTakenIncorrect        38212                       # Number of branches that were predicted taken incorrectly
system.switch_cpus0.iew.wb_consumers        280013417                       # num instructions consuming a value
system.switch_cpus0.iew.wb_count            232895298                       # cumulative count of insts written-back
system.switch_cpus0.iew.wb_fanout            0.600602                       # average fanout of values written-back
system.switch_cpus0.iew.wb_producers        168176603                       # num instructions producing a value
system.switch_cpus0.iew.wb_rate              2.329054                       # insts written-back per cycle
system.switch_cpus0.iew.wb_sent             232998560                       # cumulative count of insts sent to commit
system.switch_cpus0.int_regfile_reads       215196232                       # number of integer regfile reads
system.switch_cpus0.int_regfile_writes      102770215                       # number of integer regfile writes
system.switch_cpus0.ipc                      1.269555                       # IPC: Instructions Per Cycle
system.switch_cpus0.ipc_total                1.269555                       # IPC: Total IPC of All Threads
system.switch_cpus0.iq.FU_type_0::No_OpClass       115192      0.05%      0.05% # Type of FU issued
system.switch_cpus0.iq.FU_type_0::IntAlu    113586638     48.45%     48.49% # Type of FU issued
system.switch_cpus0.iq.FU_type_0::IntMult        25920      0.01%     48.51% # Type of FU issued
system.switch_cpus0.iq.FU_type_0::IntDiv            0      0.00%     48.51% # Type of FU issued
system.switch_cpus0.iq.FU_type_0::FloatAdd     18107100      7.72%     56.23% # Type of FU issued
system.switch_cpus0.iq.FU_type_0::FloatCmp            0      0.00%     56.23% # Type of FU issued
system.switch_cpus0.iq.FU_type_0::FloatCvt            0      0.00%     56.23% # Type of FU issued
system.switch_cpus0.iq.FU_type_0::FloatMult            0      0.00%     56.23% # Type of FU issued
system.switch_cpus0.iq.FU_type_0::FloatMultAcc            0      0.00%     56.23% # Type of FU issued
system.switch_cpus0.iq.FU_type_0::FloatDiv            0      0.00%     56.23% # Type of FU issued
system.switch_cpus0.iq.FU_type_0::FloatMisc            0      0.00%     56.23% # Type of FU issued
system.switch_cpus0.iq.FU_type_0::FloatSqrt            0      0.00%     56.23% # Type of FU issued
system.switch_cpus0.iq.FU_type_0::SimdAdd            0      0.00%     56.23% # Type of FU issued
system.switch_cpus0.iq.FU_type_0::SimdAddAcc            0      0.00%     56.23% # Type of FU issued
system.switch_cpus0.iq.FU_type_0::SimdAlu      7356418      3.14%     59.37% # Type of FU issued
system.switch_cpus0.iq.FU_type_0::SimdCmp            0      0.00%     59.37% # Type of FU issued
system.switch_cpus0.iq.FU_type_0::SimdCvt            0      0.00%     59.37% # Type of FU issued
system.switch_cpus0.iq.FU_type_0::SimdMisc      6217643      2.65%     62.02% # Type of FU issued
system.switch_cpus0.iq.FU_type_0::SimdMult            0      0.00%     62.02% # Type of FU issued
system.switch_cpus0.iq.FU_type_0::SimdMultAcc            0      0.00%     62.02% # Type of FU issued
system.switch_cpus0.iq.FU_type_0::SimdShift            0      0.00%     62.02% # Type of FU issued
system.switch_cpus0.iq.FU_type_0::SimdShiftAcc            0      0.00%     62.02% # Type of FU issued
system.switch_cpus0.iq.FU_type_0::SimdDiv            0      0.00%     62.02% # Type of FU issued
system.switch_cpus0.iq.FU_type_0::SimdSqrt            0      0.00%     62.02% # Type of FU issued
system.switch_cpus0.iq.FU_type_0::SimdFloatAdd     18231706      7.78%     69.79% # Type of FU issued
system.switch_cpus0.iq.FU_type_0::SimdFloatAlu            0      0.00%     69.79% # Type of FU issued
system.switch_cpus0.iq.FU_type_0::SimdFloatCmp        50785      0.02%     69.82% # Type of FU issued
system.switch_cpus0.iq.FU_type_0::SimdFloatCvt      4749470      2.03%     71.84% # Type of FU issued
system.switch_cpus0.iq.FU_type_0::SimdFloatDiv      1226508      0.52%     72.36% # Type of FU issued
system.switch_cpus0.iq.FU_type_0::SimdFloatMisc            0      0.00%     72.36% # Type of FU issued
system.switch_cpus0.iq.FU_type_0::SimdFloatMult     17748082      7.57%     79.93% # Type of FU issued
system.switch_cpus0.iq.FU_type_0::SimdFloatMultAcc            0      0.00%     79.93% # Type of FU issued
system.switch_cpus0.iq.FU_type_0::SimdFloatSqrt         4234      0.00%     79.94% # Type of FU issued
system.switch_cpus0.iq.FU_type_0::SimdReduceAdd            0      0.00%     79.94% # Type of FU issued
system.switch_cpus0.iq.FU_type_0::SimdReduceAlu            0      0.00%     79.94% # Type of FU issued
system.switch_cpus0.iq.FU_type_0::SimdReduceCmp            0      0.00%     79.94% # Type of FU issued
system.switch_cpus0.iq.FU_type_0::SimdFloatReduceAdd            0      0.00%     79.94% # Type of FU issued
system.switch_cpus0.iq.FU_type_0::SimdFloatReduceCmp            0      0.00%     79.94% # Type of FU issued
system.switch_cpus0.iq.FU_type_0::SimdAes            0      0.00%     79.94% # Type of FU issued
system.switch_cpus0.iq.FU_type_0::SimdAesMix            0      0.00%     79.94% # Type of FU issued
system.switch_cpus0.iq.FU_type_0::SimdSha1Hash            0      0.00%     79.94% # Type of FU issued
system.switch_cpus0.iq.FU_type_0::SimdSha1Hash2            0      0.00%     79.94% # Type of FU issued
system.switch_cpus0.iq.FU_type_0::SimdSha256Hash            0      0.00%     79.94% # Type of FU issued
system.switch_cpus0.iq.FU_type_0::SimdSha256Hash2            0      0.00%     79.94% # Type of FU issued
system.switch_cpus0.iq.FU_type_0::SimdShaSigma2            0      0.00%     79.94% # Type of FU issued
system.switch_cpus0.iq.FU_type_0::SimdShaSigma3            0      0.00%     79.94% # Type of FU issued
system.switch_cpus0.iq.FU_type_0::SimdPredAlu            0      0.00%     79.94% # Type of FU issued
system.switch_cpus0.iq.FU_type_0::MemRead      9460230      4.03%     83.97% # Type of FU issued
system.switch_cpus0.iq.FU_type_0::MemWrite      7355206      3.14%     87.11% # Type of FU issued
system.switch_cpus0.iq.FU_type_0::FloatMemRead     26727598     11.40%     98.51% # Type of FU issued
system.switch_cpus0.iq.FU_type_0::FloatMemWrite      3501721      1.49%    100.00% # Type of FU issued
system.switch_cpus0.iq.FU_type_0::IprAccess            0      0.00%    100.00% # Type of FU issued
system.switch_cpus0.iq.FU_type_0::InstPrefetch            0      0.00%    100.00% # Type of FU issued
system.switch_cpus0.iq.FU_type_0::total     234464451                       # Type of FU issued
system.switch_cpus0.iq.fp_alu_accesses      116672784                       # Number of floating point alu accesses
system.switch_cpus0.iq.fp_inst_queue_reads    232900044                       # Number of floating instruction queue reads
system.switch_cpus0.iq.fp_inst_queue_wakeup_accesses    114866503                       # Number of floating instruction queue wakeup accesses
system.switch_cpus0.iq.fp_inst_queue_writes    118155369                       # Number of floating instruction queue writes
system.switch_cpus0.iq.fu_busy_cnt            2069723                       # FU busy when requested
system.switch_cpus0.iq.fu_busy_rate          0.008827                       # FU busy rate (busy events/executed inst)
system.switch_cpus0.iq.fu_full::No_OpClass            0      0.00%      0.00% # attempts to use FU when none available
system.switch_cpus0.iq.fu_full::IntAlu        1161633     56.13%     56.13% # attempts to use FU when none available
system.switch_cpus0.iq.fu_full::IntMult             0      0.00%     56.13% # attempts to use FU when none available
system.switch_cpus0.iq.fu_full::IntDiv              0      0.00%     56.13% # attempts to use FU when none available
system.switch_cpus0.iq.fu_full::FloatAdd        20680      1.00%     57.12% # attempts to use FU when none available
system.switch_cpus0.iq.fu_full::FloatCmp            0      0.00%     57.12% # attempts to use FU when none available
system.switch_cpus0.iq.fu_full::FloatCvt            0      0.00%     57.12% # attempts to use FU when none available
system.switch_cpus0.iq.fu_full::FloatMult            0      0.00%     57.12% # attempts to use FU when none available
system.switch_cpus0.iq.fu_full::FloatMultAcc            0      0.00%     57.12% # attempts to use FU when none available
system.switch_cpus0.iq.fu_full::FloatDiv            0      0.00%     57.12% # attempts to use FU when none available
system.switch_cpus0.iq.fu_full::FloatMisc            0      0.00%     57.12% # attempts to use FU when none available
system.switch_cpus0.iq.fu_full::FloatSqrt            0      0.00%     57.12% # attempts to use FU when none available
system.switch_cpus0.iq.fu_full::SimdAdd             0      0.00%     57.12% # attempts to use FU when none available
system.switch_cpus0.iq.fu_full::SimdAddAcc            0      0.00%     57.12% # attempts to use FU when none available
system.switch_cpus0.iq.fu_full::SimdAlu        226238     10.93%     68.06% # attempts to use FU when none available
system.switch_cpus0.iq.fu_full::SimdCmp             0      0.00%     68.06% # attempts to use FU when none available
system.switch_cpus0.iq.fu_full::SimdCvt             0      0.00%     68.06% # attempts to use FU when none available
system.switch_cpus0.iq.fu_full::SimdMisc        21771      1.05%     69.11% # attempts to use FU when none available
system.switch_cpus0.iq.fu_full::SimdMult            0      0.00%     69.11% # attempts to use FU when none available
system.switch_cpus0.iq.fu_full::SimdMultAcc            0      0.00%     69.11% # attempts to use FU when none available
system.switch_cpus0.iq.fu_full::SimdShift            0      0.00%     69.11% # attempts to use FU when none available
system.switch_cpus0.iq.fu_full::SimdShiftAcc            0      0.00%     69.11% # attempts to use FU when none available
system.switch_cpus0.iq.fu_full::SimdDiv             0      0.00%     69.11% # attempts to use FU when none available
system.switch_cpus0.iq.fu_full::SimdSqrt            0      0.00%     69.11% # attempts to use FU when none available
system.switch_cpus0.iq.fu_full::SimdFloatAdd        20554      0.99%     70.10% # attempts to use FU when none available
system.switch_cpus0.iq.fu_full::SimdFloatAlu            0      0.00%     70.10% # attempts to use FU when none available
system.switch_cpus0.iq.fu_full::SimdFloatCmp            0      0.00%     70.10% # attempts to use FU when none available
system.switch_cpus0.iq.fu_full::SimdFloatCvt        25492      1.23%     71.33% # attempts to use FU when none available
system.switch_cpus0.iq.fu_full::SimdFloatDiv         1605      0.08%     71.41% # attempts to use FU when none available
system.switch_cpus0.iq.fu_full::SimdFloatMisc            0      0.00%     71.41% # attempts to use FU when none available
system.switch_cpus0.iq.fu_full::SimdFloatMult        22546      1.09%     72.50% # attempts to use FU when none available
system.switch_cpus0.iq.fu_full::SimdFloatMultAcc            0      0.00%     72.50% # attempts to use FU when none available
system.switch_cpus0.iq.fu_full::SimdFloatSqrt            0      0.00%     72.50% # attempts to use FU when none available
system.switch_cpus0.iq.fu_full::SimdReduceAdd            0      0.00%     72.50% # attempts to use FU when none available
system.switch_cpus0.iq.fu_full::SimdReduceAlu            0      0.00%     72.50% # attempts to use FU when none available
system.switch_cpus0.iq.fu_full::SimdReduceCmp            0      0.00%     72.50% # attempts to use FU when none available
system.switch_cpus0.iq.fu_full::SimdFloatReduceAdd            0      0.00%     72.50% # attempts to use FU when none available
system.switch_cpus0.iq.fu_full::SimdFloatReduceCmp            0      0.00%     72.50% # attempts to use FU when none available
system.switch_cpus0.iq.fu_full::SimdAes             0      0.00%     72.50% # attempts to use FU when none available
system.switch_cpus0.iq.fu_full::SimdAesMix            0      0.00%     72.50% # attempts to use FU when none available
system.switch_cpus0.iq.fu_full::SimdSha1Hash            0      0.00%     72.50% # attempts to use FU when none available
system.switch_cpus0.iq.fu_full::SimdSha1Hash2            0      0.00%     72.50% # attempts to use FU when none available
system.switch_cpus0.iq.fu_full::SimdSha256Hash            0      0.00%     72.50% # attempts to use FU when none available
system.switch_cpus0.iq.fu_full::SimdSha256Hash2            0      0.00%     72.50% # attempts to use FU when none available
system.switch_cpus0.iq.fu_full::SimdShaSigma2            0      0.00%     72.50% # attempts to use FU when none available
system.switch_cpus0.iq.fu_full::SimdShaSigma3            0      0.00%     72.50% # attempts to use FU when none available
system.switch_cpus0.iq.fu_full::SimdPredAlu            0      0.00%     72.50% # attempts to use FU when none available
system.switch_cpus0.iq.fu_full::MemRead        318113     15.37%     87.87% # attempts to use FU when none available
system.switch_cpus0.iq.fu_full::MemWrite       148567      7.18%     95.05% # attempts to use FU when none available
system.switch_cpus0.iq.fu_full::FloatMemRead        72929      3.52%     98.57% # attempts to use FU when none available
system.switch_cpus0.iq.fu_full::FloatMemWrite        29595      1.43%    100.00% # attempts to use FU when none available
system.switch_cpus0.iq.fu_full::IprAccess            0      0.00%    100.00% # attempts to use FU when none available
system.switch_cpus0.iq.fu_full::InstPrefetch            0      0.00%    100.00% # attempts to use FU when none available
system.switch_cpus0.iq.int_alu_accesses     119746198                       # Number of integer alu accesses
system.switch_cpus0.iq.int_inst_queue_reads    337724646                       # Number of integer instruction queue reads
system.switch_cpus0.iq.int_inst_queue_wakeup_accesses    118028795                       # Number of integer instruction queue wakeup accesses
system.switch_cpus0.iq.int_inst_queue_writes    121322469                       # Number of integer instruction queue writes
system.switch_cpus0.iq.iqInstsAdded         234754578                       # Number of instructions added to the IQ (excludes non-spec)
system.switch_cpus0.iq.iqInstsIssued        234464451                       # Number of instructions issued
system.switch_cpus0.iq.iqNonSpecInstsAdded         3627                       # Number of non-speculative instructions added to the IQ
system.switch_cpus0.iq.iqSquashedInstsExamined      4716897                       # Number of squashed instructions iterated over during squash; mainly for profiling
system.switch_cpus0.iq.iqSquashedInstsIssued        17885                       # Number of squashed instructions issued
system.switch_cpus0.iq.iqSquashedNonSpecRemoved         3204                       # Number of squashed non-spec instructions that were removed
system.switch_cpus0.iq.iqSquashedOperandsExamined      5253500                       # Number of squashed operands that are examined and possibly removed from graph
system.switch_cpus0.iq.issued_per_cycle::samples     99608180                       # Number of insts issued each cycle
system.switch_cpus0.iq.issued_per_cycle::mean     2.353867                       # Number of insts issued each cycle
system.switch_cpus0.iq.issued_per_cycle::stdev     2.529207                       # Number of insts issued each cycle
system.switch_cpus0.iq.issued_per_cycle::underflows            0      0.00%      0.00% # Number of insts issued each cycle
system.switch_cpus0.iq.issued_per_cycle::0     41515127     41.68%     41.68% # Number of insts issued each cycle
system.switch_cpus0.iq.issued_per_cycle::1      6528337      6.55%     48.23% # Number of insts issued each cycle
system.switch_cpus0.iq.issued_per_cycle::2      9376329      9.41%     57.65% # Number of insts issued each cycle
system.switch_cpus0.iq.issued_per_cycle::3      9720239      9.76%     67.40% # Number of insts issued each cycle
system.switch_cpus0.iq.issued_per_cycle::4      9463442      9.50%     76.90% # Number of insts issued each cycle
system.switch_cpus0.iq.issued_per_cycle::5      8074415      8.11%     85.01% # Number of insts issued each cycle
system.switch_cpus0.iq.issued_per_cycle::6      6716118      6.74%     91.75% # Number of insts issued each cycle
system.switch_cpus0.iq.issued_per_cycle::7      4213196      4.23%     95.98% # Number of insts issued each cycle
system.switch_cpus0.iq.issued_per_cycle::8      4000977      4.02%    100.00% # Number of insts issued each cycle
system.switch_cpus0.iq.issued_per_cycle::overflows            0      0.00%    100.00% # Number of insts issued each cycle
system.switch_cpus0.iq.issued_per_cycle::min_value            0                       # Number of insts issued each cycle
system.switch_cpus0.iq.issued_per_cycle::max_value            8                       # Number of insts issued each cycle
system.switch_cpus0.iq.issued_per_cycle::total     99608180                       # Number of insts issued each cycle
system.switch_cpus0.iq.rate                  2.344746                       # Inst issue rate
system.switch_cpus0.iq.vec_alu_accesses             0                       # Number of vector alu accesses
system.switch_cpus0.iq.vec_inst_queue_reads            0                       # Number of vector instruction queue reads
system.switch_cpus0.iq.vec_inst_queue_wakeup_accesses            0                       # Number of vector instruction queue wakeup accesses
system.switch_cpus0.iq.vec_inst_queue_writes            0                       # Number of vector instruction queue writes
system.switch_cpus0.memDep0.conflictingLoads      2798625                       # Number of conflicting loads.
system.switch_cpus0.memDep0.conflictingStores       532752                       # Number of conflicting stores.
system.switch_cpus0.memDep0.insertedLoads     35072535                       # Number of loads inserted to the mem dependence unit.
system.switch_cpus0.memDep0.insertedStores     11015967                       # Number of stores inserted to the mem dependence unit.
system.switch_cpus0.misc_regfile_reads       89491009                       # number of misc regfile reads
system.switch_cpus0.misc_regfile_writes             1                       # number of misc regfile writes
system.switch_cpus0.numCycles                99995683                       # number of cpu cycles simulated
system.switch_cpus0.numWorkItemsCompleted            0                       # number of work items this cpu completed
system.switch_cpus0.numWorkItemsStarted             0                       # number of work items this cpu started
system.switch_cpus0.timesIdled                  11271                       # Number of times that the entire CPU went into an idle state and unscheduled itself
system.switch_cpus1.cc_regfile_reads        204811336                       # number of cc regfile reads
system.switch_cpus1.cc_regfile_writes       100704434                       # number of cc regfile writes
system.switch_cpus1.committedInsts          250000003                       # Number of Instructions Simulated
system.switch_cpus1.committedOps            450562993                       # Number of Ops (including micro ops) Simulated
system.switch_cpus1.cpi                      0.399983                       # CPI: Cycles Per Instruction
system.switch_cpus1.cpi_total                0.399983                       # CPI: Total CPI of All Threads
system.switch_cpus1.fp_regfile_reads        147778007                       # number of floating regfile reads
system.switch_cpus1.fp_regfile_writes        84846317                       # number of floating regfile writes
system.switch_cpus1.idleCycles                  94370                       # Total number of cycles that the CPU has spent unscheduled due to idling
system.switch_cpus1.iew.branchMispredicts      1114798                       # Number of branch mispredicts detected at execute
system.switch_cpus1.iew.exec_branches        46357218                       # Number of branches executed
system.switch_cpus1.iew.exec_nop                    0                       # number of nop insts executed
system.switch_cpus1.iew.exec_rate            4.809932                       # Inst execution rate
system.switch_cpus1.iew.exec_refs           140947745                       # number of memory reference insts executed
system.switch_cpus1.iew.exec_stores          42745947                       # Number of stores executed
system.switch_cpus1.iew.exec_swp                    0                       # number of swp insts executed
system.switch_cpus1.iew.iewBlockCycles        6391870                       # Number of cycles IEW is blocking
system.switch_cpus1.iew.iewDispLoadInsts    102949349                       # Number of dispatched load instructions
system.switch_cpus1.iew.iewDispNonSpecInsts            6                       # Number of dispatched non-speculative instructions
system.switch_cpus1.iew.iewDispSquashedInsts          391                       # Number of squashed instructions skipped by dispatch
system.switch_cpus1.iew.iewDispStoreInsts     45389690                       # Number of dispatched store instructions
system.switch_cpus1.iew.iewDispatchedInsts    503506202                       # Number of instructions dispatched to IQ
system.switch_cpus1.iew.iewExecLoadInsts     98201798                       # Number of load instructions executed
system.switch_cpus1.iew.iewExecSquashedInsts      3007911                       # Number of squashed instructions skipped in execute
system.switch_cpus1.iew.iewExecutedInsts    480972480                       # Number of executed instructions
system.switch_cpus1.iew.iewIQFullEvents          9631                       # Number of times the IQ has become full, causing a stall
system.switch_cpus1.iew.iewIdleCycles               0                       # Number of cycles IEW is idle
system.switch_cpus1.iew.iewLSQFullEvents       196982                       # Number of times the LSQ has become full, causing a stall
system.switch_cpus1.iew.iewSquashCycles        996926                       # Number of cycles IEW is squashing
system.switch_cpus1.iew.iewUnblockCycles       211188                       # Number of cycles IEW is unblocking
system.switch_cpus1.iew.memOrderViolationEvents        18558                       # Number of memory order violations
system.switch_cpus1.iew.predictedNotTakenIncorrect       728216                       # Number of branches that were predicted not taken incorrectly
system.switch_cpus1.iew.predictedTakenIncorrect       386582                       # Number of branches that were predicted taken incorrectly
system.switch_cpus1.iew.wb_consumers        629450400                       # num instructions consuming a value
system.switch_cpus1.iew.wb_count            479127895                       # cumulative count of insts written-back
system.switch_cpus1.iew.wb_fanout            0.567196                       # average fanout of values written-back
system.switch_cpus1.iew.wb_producers        357021658                       # num instructions producing a value
system.switch_cpus1.iew.wb_rate              4.791486                       # insts written-back per cycle
system.switch_cpus1.iew.wb_sent             480382007                       # cumulative count of insts sent to commit
system.switch_cpus1.int_regfile_reads       665361716                       # number of integer regfile reads
system.switch_cpus1.int_regfile_writes      299671030                       # number of integer regfile writes
system.switch_cpus1.ipc                      2.500108                       # IPC: Instructions Per Cycle
system.switch_cpus1.ipc_total                2.500108                       # IPC: Total IPC of All Threads
system.switch_cpus1.iq.FU_type_0::No_OpClass      2597896      0.54%      0.54% # Type of FU issued
system.switch_cpus1.iq.FU_type_0::IntAlu    289952797     59.91%     60.45% # Type of FU issued
system.switch_cpus1.iq.FU_type_0::IntMult       973416      0.20%     60.65% # Type of FU issued
system.switch_cpus1.iq.FU_type_0::IntDiv            0      0.00%     60.65% # Type of FU issued
system.switch_cpus1.iq.FU_type_0::FloatAdd      1295049      0.27%     60.92% # Type of FU issued
system.switch_cpus1.iq.FU_type_0::FloatCmp            0      0.00%     60.92% # Type of FU issued
system.switch_cpus1.iq.FU_type_0::FloatCvt            0      0.00%     60.92% # Type of FU issued
system.switch_cpus1.iq.FU_type_0::FloatMult            0      0.00%     60.92% # Type of FU issued
system.switch_cpus1.iq.FU_type_0::FloatMultAcc            0      0.00%     60.92% # Type of FU issued
system.switch_cpus1.iq.FU_type_0::FloatDiv            0      0.00%     60.92% # Type of FU issued
system.switch_cpus1.iq.FU_type_0::FloatMisc            0      0.00%     60.92% # Type of FU issued
system.switch_cpus1.iq.FU_type_0::FloatSqrt            0      0.00%     60.92% # Type of FU issued
system.switch_cpus1.iq.FU_type_0::SimdAdd            0      0.00%     60.92% # Type of FU issued
system.switch_cpus1.iq.FU_type_0::SimdAddAcc            0      0.00%     60.92% # Type of FU issued
system.switch_cpus1.iq.FU_type_0::SimdAlu      3134838      0.65%     61.56% # Type of FU issued
system.switch_cpus1.iq.FU_type_0::SimdCmp            0      0.00%     61.56% # Type of FU issued
system.switch_cpus1.iq.FU_type_0::SimdCvt            0      0.00%     61.56% # Type of FU issued
system.switch_cpus1.iq.FU_type_0::SimdMisc       204017      0.04%     61.61% # Type of FU issued
system.switch_cpus1.iq.FU_type_0::SimdMult            0      0.00%     61.61% # Type of FU issued
system.switch_cpus1.iq.FU_type_0::SimdMultAcc            0      0.00%     61.61% # Type of FU issued
system.switch_cpus1.iq.FU_type_0::SimdShift            0      0.00%     61.61% # Type of FU issued
system.switch_cpus1.iq.FU_type_0::SimdShiftAcc            0      0.00%     61.61% # Type of FU issued
system.switch_cpus1.iq.FU_type_0::SimdDiv            0      0.00%     61.61% # Type of FU issued
system.switch_cpus1.iq.FU_type_0::SimdSqrt            0      0.00%     61.61% # Type of FU issued
system.switch_cpus1.iq.FU_type_0::SimdFloatAdd     17532740      3.62%     65.23% # Type of FU issued
system.switch_cpus1.iq.FU_type_0::SimdFloatAlu            0      0.00%     65.23% # Type of FU issued
system.switch_cpus1.iq.FU_type_0::SimdFloatCmp        60184      0.01%     65.24% # Type of FU issued
system.switch_cpus1.iq.FU_type_0::SimdFloatCvt      7672100      1.59%     66.83% # Type of FU issued
system.switch_cpus1.iq.FU_type_0::SimdFloatDiv       602006      0.12%     66.95% # Type of FU issued
system.switch_cpus1.iq.FU_type_0::SimdFloatMisc            0      0.00%     66.95% # Type of FU issued
system.switch_cpus1.iq.FU_type_0::SimdFloatMult     17421754      3.60%     70.55% # Type of FU issued
system.switch_cpus1.iq.FU_type_0::SimdFloatMultAcc            0      0.00%     70.55% # Type of FU issued
system.switch_cpus1.iq.FU_type_0::SimdFloatSqrt        41995      0.01%     70.56% # Type of FU issued
system.switch_cpus1.iq.FU_type_0::SimdReduceAdd            0      0.00%     70.56% # Type of FU issued
system.switch_cpus1.iq.FU_type_0::SimdReduceAlu            0      0.00%     70.56% # Type of FU issued
system.switch_cpus1.iq.FU_type_0::SimdReduceCmp            0      0.00%     70.56% # Type of FU issued
system.switch_cpus1.iq.FU_type_0::SimdFloatReduceAdd            0      0.00%     70.56% # Type of FU issued
system.switch_cpus1.iq.FU_type_0::SimdFloatReduceCmp            0      0.00%     70.56% # Type of FU issued
system.switch_cpus1.iq.FU_type_0::SimdAes            0      0.00%     70.56% # Type of FU issued
system.switch_cpus1.iq.FU_type_0::SimdAesMix            0      0.00%     70.56% # Type of FU issued
[...]
system.switch_cpus3.commit.numCommittedDist::stdev     3.314473                       # Number of insts commited each cycle
system.switch_cpus3.commit.numCommittedDist::underflows            0      0.00%      0.00% # Number of insts commited each cycle
system.switch_cpus3.commit.numCommittedDist::0     37156487     38.31%     38.31% # Number of insts commited each cycle
system.switch_cpus3.commit.numCommittedDist::1     15162679     15.63%     53.94% # Number of insts commited each cycle
system.switch_cpus3.commit.numCommittedDist::2      4650899      4.79%     58.73% # Number of insts commited each cycle
system.switch_cpus3.commit.numCommittedDist::3      4670124      4.81%     63.55% # Number of insts commited each cycle
system.switch_cpus3.commit.numCommittedDist::4      5903401      6.09%     69.64% # Number of insts commited each cycle
system.switch_cpus3.commit.numCommittedDist::5      1959517      2.02%     71.66% # Number of insts commited each cycle
system.switch_cpus3.commit.numCommittedDist::6      2004154      2.07%     73.72% # Number of insts commited each cycle
system.switch_cpus3.commit.numCommittedDist::7       333001      0.34%     74.07% # Number of insts commited each cycle
system.switch_cpus3.commit.numCommittedDist::8     25154900     25.93%    100.00% # Number of insts commited each cycle
system.switch_cpus3.commit.numCommittedDist::overflows            0      0.00%    100.00% # Number of insts commited each cycle
system.switch_cpus3.commit.numCommittedDist::min_value            0                       # Number of insts commited each cycle
system.switch_cpus3.commit.numCommittedDist::max_value            8                       # Number of insts commited each cycle
system.switch_cpus3.commit.numCommittedDist::total     96995162                       # Number of insts commited each cycle
system.switch_cpus3.commit.instsCommitted    188590304                       # Number of instructions committed
system.switch_cpus3.commit.opsCommitted     287481169                       # Number of ops (including micro ops) committed
system.switch_cpus3.commit.memRefs           56760054                       # Number of memory references committed
system.switch_cpus3.commit.loads             46119207                       # Number of loads committed
system.switch_cpus3.commit.amos                     0                       # Number of atomic instructions committed
system.switch_cpus3.commit.membars                  0                       # Number of memory barriers committed
system.switch_cpus3.commit.branches          18501013                       # Number of branches committed
system.switch_cpus3.commit.vector                   0                       # Number of committed Vector instructions.
system.switch_cpus3.commit.floating         160946282                       # Number of committed floating point instructions.
system.switch_cpus3.commit.integer          173696241                       # Number of committed integer instructions.
system.switch_cpus3.commit.functionCalls       214112                       # Number of function calls committed.
system.switch_cpus3.commit.committedInstType_0::No_OpClass          991      0.00%      0.00% # Class of committed instruction
system.switch_cpus3.commit.committedInstType_0::IntAlu    139921672     48.67%     48.67% # Class of committed instruction
system.switch_cpus3.commit.committedInstType_0::IntMult      1482050      0.52%     49.19% # Class of committed instruction
system.switch_cpus3.commit.committedInstType_0::IntDiv            0      0.00%     49.19% # Class of committed instruction
system.switch_cpus3.commit.committedInstType_0::FloatAdd      2570044      0.89%     50.08% # Class of committed instruction
system.switch_cpus3.commit.committedInstType_0::FloatCmp            0      0.00%     50.08% # Class of committed instruction
system.switch_cpus3.commit.committedInstType_0::FloatCvt            0      0.00%     50.08% # Class of committed instruction
system.switch_cpus3.commit.committedInstType_0::FloatMult            0      0.00%     50.08% # Class of committed instruction
system.switch_cpus3.commit.committedInstType_0::FloatMultAcc            0      0.00%     50.08% # Class of committed instruction
system.switch_cpus3.commit.committedInstType_0::FloatDiv            0      0.00%     50.08% # Class of committed instruction
system.switch_cpus3.commit.committedInstType_0::FloatMisc            0      0.00%     50.08% # Class of committed instruction
system.switch_cpus3.commit.committedInstType_0::FloatSqrt            0      0.00%     50.08% # Class of committed instruction
system.switch_cpus3.commit.committedInstType_0::SimdAdd            0      0.00%     50.08% # Class of committed instruction
system.switch_cpus3.commit.committedInstType_0::SimdAddAcc            0      0.00%     50.08% # Class of committed instruction
system.switch_cpus3.commit.committedInstType_0::SimdAlu      3874684      1.35%     51.43% # Class of committed instruction
system.switch_cpus3.commit.committedInstType_0::SimdCmp            0      0.00%     51.43% # Class of committed instruction
system.switch_cpus3.commit.committedInstType_0::SimdCvt            0      0.00%     51.43% # Class of committed instruction
system.switch_cpus3.commit.committedInstType_0::SimdMisc      1498778      0.52%     51.95% # Class of committed instruction
system.switch_cpus3.commit.committedInstType_0::SimdMult            0      0.00%     51.95% # Class of committed instruction
system.switch_cpus3.commit.committedInstType_0::SimdMultAcc            0      0.00%     51.95% # Class of committed instruction
system.switch_cpus3.commit.committedInstType_0::SimdShift            0      0.00%     51.95% # Class of committed instruction
system.switch_cpus3.commit.committedInstType_0::SimdShiftAcc            0      0.00%     51.95% # Class of committed instruction
system.switch_cpus3.commit.committedInstType_0::SimdDiv            0      0.00%     51.95% # Class of committed instruction
system.switch_cpus3.commit.committedInstType_0::SimdSqrt            0      0.00%     51.95% # Class of committed instruction
system.switch_cpus3.commit.committedInstType_0::SimdFloatAdd     31860028     11.08%     63.03% # Class of committed instruction
system.switch_cpus3.commit.committedInstType_0::SimdFloatAlu            0      0.00%     63.03% # Class of committed instruction
system.switch_cpus3.commit.committedInstType_0::SimdFloatCmp            0      0.00%     63.03% # Class of committed instruction
system.switch_cpus3.commit.committedInstType_0::SimdFloatCvt      9185391      3.20%     66.23% # Class of committed instruction
system.switch_cpus3.commit.committedInstType_0::SimdFloatDiv      1719628      0.60%     66.83% # Class of committed instruction
system.switch_cpus3.commit.committedInstType_0::SimdFloatMisc            0      0.00%     66.83% # Class of committed instruction
system.switch_cpus3.commit.committedInstType_0::SimdFloatMult     37126790     12.91%     79.74% # Class of committed instruction
system.switch_cpus3.commit.committedInstType_0::SimdFloatMultAcc            0      0.00%     79.74% # Class of committed instruction
system.switch_cpus3.commit.committedInstType_0::SimdFloatSqrt      1481059      0.52%     80.26% # Class of committed instruction
system.switch_cpus3.commit.committedInstType_0::SimdReduceAdd            0      0.00%     80.26% # Class of committed instruction
system.switch_cpus3.commit.committedInstType_0::SimdReduceAlu            0      0.00%     80.26% # Class of committed instruction
system.switch_cpus3.commit.committedInstType_0::SimdReduceCmp            0      0.00%     80.26% # Class of committed instruction
system.switch_cpus3.commit.committedInstType_0::SimdFloatReduceAdd            0      0.00%     80.26% # Class of committed instruction
system.switch_cpus3.commit.committedInstType_0::SimdFloatReduceCmp            0      0.00%     80.26% # Class of committed instruction
system.switch_cpus3.commit.committedInstType_0::SimdAes            0      0.00%     80.26% # Class of committed instruction
system.switch_cpus3.commit.committedInstType_0::SimdAesMix            0      0.00%     80.26% # Class of committed instruction
system.switch_cpus3.commit.committedInstType_0::SimdSha1Hash            0      0.00%     80.26% # Class of committed instruction
system.switch_cpus3.commit.committedInstType_0::SimdSha1Hash2            0      0.00%     80.26% # Class of committed instruction
system.switch_cpus3.commit.committedInstType_0::SimdSha256Hash            0      0.00%     80.26% # Class of committed instruction
system.switch_cpus3.commit.committedInstType_0::SimdSha256Hash2            0      0.00%     80.26% # Class of committed instruction
system.switch_cpus3.commit.committedInstType_0::SimdShaSigma2            0      0.00%     80.26% # Class of committed instruction
system.switch_cpus3.commit.committedInstType_0::SimdShaSigma3            0      0.00%     80.26% # Class of committed instruction
system.switch_cpus3.commit.committedInstType_0::SimdPredAlu            0      0.00%     80.26% # Class of committed instruction
system.switch_cpus3.commit.committedInstType_0::MemRead      8095949      2.82%     83.07% # Class of committed instruction
system.switch_cpus3.commit.committedInstType_0::MemWrite      3000538      1.04%     84.12% # Class of committed instruction
system.switch_cpus3.commit.committedInstType_0::FloatMemRead     38023258     13.23%     97.34% # Class of committed instruction
system.switch_cpus3.commit.committedInstType_0::FloatMemWrite      7640309      2.66%    100.00% # Class of committed instruction
system.switch_cpus3.commit.committedInstType_0::IprAccess            0      0.00%    100.00% # Class of committed instruction
system.switch_cpus3.commit.committedInstType_0::InstPrefetch            0      0.00%    100.00% # Class of committed instruction
system.switch_cpus3.commit.committedInstType_0::total    287481169                       # Class of committed instruction
system.switch_cpus3.commit.commitEligibleSamples     25154900                       # number cycles where commit BW limit reached
system.switch_cpus3.decode.idleCycles         8123972                       # Number of cycles decode is idle
system.switch_cpus3.decode.blockedCycles     50700149                       # Number of cycles decode is blocked
system.switch_cpus3.decode.runCycles         25460934                       # Number of cycles decode is running
system.switch_cpus3.decode.unblockCycles     15482763                       # Number of cycles decode is unblocking
system.switch_cpus3.decode.squashCycles        208881                       # Number of cycles decode is squashing
system.switch_cpus3.decode.branchResolved      8715086                       # Number of times decode resolved a  branch
system.switch_cpus3.decode.branchMispred           42                       # Number of times decode detected a branch misprediction
system.switch_cpus3.decode.decodedInsts     314363089                       # Number of instructions handled by decode
system.switch_cpus3.decode.squashedInsts          171                       # Number of squashed instructions handled by decode
system.switch_cpus3.dtb.rdAccesses           48132543                       # TLB accesses on read requests
system.switch_cpus3.dtb.wrAccesses           12964009                       # TLB accesses on write requests
system.switch_cpus3.dtb.rdMisses                47557                       # TLB misses on read requests
system.switch_cpus3.dtb.wrMisses                    0                       # TLB misses on write requests
system.switch_cpus3.dtb.walker.power_state.pwrStateResidencyTicks::UNDEFINED 16848449478873                       # Cumulative time (in ticks) in various power states
system.switch_cpus3.fetch.icacheStallCycles       208061                       # Number of cycles fetch is stalled on an Icache miss
system.switch_cpus3.fetch.insts             208710460                       # Number of instructions fetch has processed
system.switch_cpus3.fetch.branches           20334980                       # Number of branches that fetch encountered
system.switch_cpus3.fetch.predictedBranches      9552177                       # Number of branches that fetch has predicted taken
system.switch_cpus3.fetch.cycles             99559725                       # Number of cycles fetch has run and was not squashing or blocked
system.switch_cpus3.fetch.squashCycles         417846                       # Number of cycles fetch has spent squashing
system.switch_cpus3.fetch.cacheLines         23699643                       # Number of cache lines fetched
system.switch_cpus3.fetch.icacheSquashes           60                       # Number of outstanding Icache misses that were squashed
system.switch_cpus3.fetch.nisnDist::samples     99976709                       # Number of instructions fetched each cycle (Total)
system.switch_cpus3.fetch.nisnDist::mean     3.190188                       # Number of instructions fetched each cycle (Total)
system.switch_cpus3.fetch.nisnDist::stdev     3.453867                       # Number of instructions fetched each cycle (Total)
system.switch_cpus3.fetch.nisnDist::underflows            0      0.00%      0.00% # Number of instructions fetched each cycle (Total)
system.switch_cpus3.fetch.nisnDist::0        44716969     44.73%     44.73% # Number of instructions fetched each cycle (Total)
system.switch_cpus3.fetch.nisnDist::1         4623177      4.62%     49.35% # Number of instructions fetched each cycle (Total)
system.switch_cpus3.fetch.nisnDist::2         4874853      4.88%     54.23% # Number of instructions fetched each cycle (Total)
system.switch_cpus3.fetch.nisnDist::3         4265097      4.27%     58.49% # Number of instructions fetched each cycle (Total)
system.switch_cpus3.fetch.nisnDist::4         5586327      5.59%     64.08% # Number of instructions fetched each cycle (Total)
system.switch_cpus3.fetch.nisnDist::5         4003372      4.00%     68.09% # Number of instructions fetched each cycle (Total)
system.switch_cpus3.fetch.nisnDist::6         1867639      1.87%     69.95% # Number of instructions fetched each cycle (Total)
system.switch_cpus3.fetch.nisnDist::7         2105848      2.11%     72.06% # Number of instructions fetched each cycle (Total)
system.switch_cpus3.fetch.nisnDist::8        27933427     27.94%    100.00% # Number of instructions fetched each cycle (Total)
system.switch_cpus3.fetch.nisnDist::overflows            0      0.00%    100.00% # Number of instructions fetched each cycle (Total)
system.switch_cpus3.fetch.nisnDist::min_value            0                       # Number of instructions fetched each cycle (Total)
system.switch_cpus3.fetch.nisnDist::max_value            8                       # Number of instructions fetched each cycle (Total)
system.switch_cpus3.fetch.nisnDist::total     99976709                       # Number of instructions fetched each cycle (Total)
system.switch_cpus3.fetch.branchRate         0.203359                       # Number of branch fetches per cycle
system.switch_cpus3.fetch.rate               2.087195                       # Number of inst fetches per cycle
system.switch_cpus3.itb.rdAccesses                  0                       # TLB accesses on read requests
system.switch_cpus3.itb.wrAccesses           23699643                       # TLB accesses on write requests
system.switch_cpus3.itb.rdMisses                    0                       # TLB misses on read requests
system.switch_cpus3.itb.wrMisses                   10                       # TLB misses on write requests
system.switch_cpus3.itb.walker.power_state.pwrStateResidencyTicks::UNDEFINED 16848449478873                       # Cumulative time (in ticks) in various power states
system.switch_cpus3.lsq0.forwLoads             369191                       # Number of loads that had data forwarded from stores
system.switch_cpus3.lsq0.squashedLoads        2809228                       # Number of loads squashed
system.switch_cpus3.lsq0.ignoredResponses            8                       # Number of memory responses ignored because the instruction is squashed
system.switch_cpus3.lsq0.memOrderViolation          460                       # Number of memory ordering violations
system.switch_cpus3.lsq0.squashedStores       2762670                       # Number of stores squashed
system.switch_cpus3.lsq0.rescheduledLoads            0                       # Number of loads that were rescheduled
system.switch_cpus3.lsq0.blockedByCache             1                       # Number of times an access to memory failed due to the cache being blocked
system.switch_cpus3.power_state.pwrStateResidencyTicks::OFF  33298572762                       # Cumulative time (in ticks) in various power states
system.switch_cpus3.rename.squashCycles        208881                       # Number of cycles rename is squashing
system.switch_cpus3.rename.idleCycles        13340890                       # Number of cycles rename is idle
system.switch_cpus3.rename.blockCycles       29403145                       # Number of cycles rename is blocking
system.switch_cpus3.rename.serializeStallCycles            0                       # count of cycles rename stalledfor serializing inst
system.switch_cpus3.rename.runCycles         35558341                       # Number of cycles rename is running
system.switch_cpus3.rename.unblockCycles     21465442                       # Number of cycles rename is unblocking
system.switch_cpus3.rename.renamedInsts     312975450                       # Number of instructions processed by rename
system.switch_cpus3.rename.ROBFullEvents        39092                       # Number of times rename has blocked due to ROB full
system.switch_cpus3.rename.IQFullEvents      15328514                       # Number of times rename has blocked due to IQ full
system.switch_cpus3.rename.LQFullEvents       2118289                       # Number of times rename has blocked due to LQ full
system.switch_cpus3.rename.SQFullEvents            30                       # Number of times rename has blocked due to SQ full
system.switch_cpus3.rename.renamedOperands    328703737                       # Number of destination operands rename has renamed
system.switch_cpus3.rename.lookups          818536624                       # Number of register rename lookups that rename has made
system.switch_cpus3.rename.intLookups       259506295                       # Number of integer rename lookups
system.switch_cpus3.rename.fpLookups        324074098                       # Number of floating rename lookups
system.switch_cpus3.rename.committedMaps    302580265                       # Number of HB maps that are committed
system.switch_cpus3.rename.undoneMaps        26123392                       # Number of HB maps that are undone due to squashing
system.switch_cpus3.rename.serializing              0                       # count of serializing insts renamed
system.switch_cpus3.rename.tempSerializing            0                       # count of temporary serializing insts renamed
system.switch_cpus3.rename.skidInsts         63708347                       # count of insts added to the skid buffer
system.switch_cpus3.rob.reads               382459383                       # The number of ROB reads
system.switch_cpus3.rob.writes              624219889                       # The number of ROB writes
system.switch_cpus3.thread0.numInsts        188590304                       # Number of Instructions committed
system.switch_cpus3.thread0.numOps          287481169                       # Number of Ops committed
system.switch_cpus3.thread0.numMemRefs              0                       # Number of Memory References
system.voltage_domain.voltage                       1                       # Voltage in Volts

---------- End Simulation Statistics   ----------
