Command line:
./runscript_pride.sh mix7 RFM5.BR2.4C 4 2017 --rh_defense --rh_mitigation=RFM --rh_rfm_per_trefi=5 --rh_rfm_blast_radius=2 --rh_rfm_maxacts_per_trefi=79
Global frequency set at 1000000000000 ticks per second
RFM details - rfm_act_threshold: 15, blast_radius: 2, delay_per_rfm: 175000 ps. sample_rate: 0.062500
RH Defense config: RFM, Bus Delay: 0, rfms_per_trefi: 5, rfm_act_threshold: 15, blast_radius: 2,rfm_delay_per_act: 45000 ps.
DRAM config: RowsPerBank: 65536, BanksPerRank: 32, RanksPerChannel: 1
warn: Sockets disabled, not accepting gdb connections
warn: CoherentXBar system.cpu0.mmucache.mmubus has no snooping ports attached!
warn: CoherentXBar system.cpu1.mmucache.mmubus has no snooping ports attached!
warn: CoherentXBar system.cpu2.mmucache.mmubus has no snooping ports attached!
warn: CoherentXBar system.cpu3.mmucache.mmubus has no snooping ports attached!
warn: Checkpoints for file descriptors currently do not work.
warn: Checkpoints for file descriptors currently do not work.
warn: Checkpoints for file descriptors currently do not work.
warn: Checkpoints for file descriptors currently do not work.
gem5 Simulator System.  http://gem5.org
gem5 is copyrighted software; use the --copyright option for details.

gem5 version 20.1.0.5
gem5 compiled Jul 12 2024 12:42:38
gem5 started Jul 22 2024 17:19:37
gem5 executing on a07dda8b130c, pid 89446
command line: /home/user/PrIDE/performance/gem5/build/X86/gem5.opt --outdir=/home/user/PrIDE/performance/gem5/stats/pride_multiprogram_16GBmem_250Mn.SPEC2017.C4/RFM5.BR2.4C/mix7 /home/user/PrIDE/performance/gem5/configs/example/se_rq_spec_config_multicore.py --redirects /lib64=/home/utils/gcc-6.2.0/lib64 --benchmark=mix7 --benchmark_stdout=/home/user/PrIDE/performance/gem5/stats/pride_multiprogram_16GBmem_250Mn.SPEC2017.C4/RFM5.BR2.4C/mix7/mix7.out --benchmark_stderr=/home/user/PrIDE/performance/gem5/stats/pride_multiprogram_16GBmem_250Mn.SPEC2017.C4/RFM5.BR2.4C/mix7/mix7.err --spec-version=2017 --rh_defense --rh_mitigation=RFM --rh_rfm_per_trefi=5 --rh_rfm_blast_radius=2 --rh_rfm_maxacts_per_trefi=79 --num-cpus=4 --mem-size=16GB --mem-type=DDR5_2400_32x4 --mem-ranks=1 --checkpoint-dir=/home/user/PrIDE/performance/gem5/cpts/multiprogram_16GBmem_25Bn.SPEC2017.C4/mix7-1-ref-x86 --checkpoint-restore=25000000000 --at-instruction --cpu-type DerivO3CPU --caches --l2cache --l1d_size=32kB --l1i_size=32kB --l2_size=256kB --l1d_assoc=8 --l1i_assoc=8 --l2_assoc=16 --maxinsts=250000000 --prog-interval=300Hz

info: Standard input is not a terminal, disabling listeners.
Benchmark- 0   povray
Selected benchmark
--> povray
CMD: ['/opt/spec2017/benchspec/CPU/511.povray_r/run/run_base_refrate_gem5_se-m64.0000/povray_r_base.gem5_se-m64', '/opt/spec2017/benchspec/CPU/511.povray_r/run/run_base_refrate_gem5_se-m64.0000/SPEC-benchmark-ref.ini']
CWD: /opt/spec2017/benchspec/CPU/511.povray_r/run/run_base_refrate_gem5_se-m64.0000/
Process stdout file: /home/user/PrIDE/performance/gem5/stats/pride_multiprogram_16GBmem_250Mn.SPEC2017.C4/RFM5.BR2.4C/mix7/mix7.out_0
Process stderr file: /home/user/PrIDE/performance/gem5/stats/pride_multiprogram_16GBmem_250Mn.SPEC2017.C4/RFM5.BR2.4C/mix7/mix7.err_0
Benchmark- 1   roms
Selected benchmark
--> roms
CMD: ['/opt/spec2017/benchspec/CPU/554.roms_r/run/run_base_refrate_gem5_se-m64.0000/roms_r_base.gem5_se-m64']
CWD: /opt/spec2017/benchspec/CPU/554.roms_r/run/run_base_refrate_gem5_se-m64.0000/
Process stdout file: /home/user/PrIDE/performance/gem5/stats/pride_multiprogram_16GBmem_250Mn.SPEC2017.C4/RFM5.BR2.4C/mix7/mix7.out_1
Process stderr file: /home/user/PrIDE/performance/gem5/stats/pride_multiprogram_16GBmem_250Mn.SPEC2017.C4/RFM5.BR2.4C/mix7/mix7.err_1
Benchmark- 2   nab
Selected benchmark
--> nab
CMD: ['/opt/spec2017/benchspec/CPU/544.nab_r/run/run_base_refrate_gem5_se-m64.0000/nab_r_base.gem5_se-m64', '1am0', '1122214447', '122']
CWD: /opt/spec2017/benchspec/CPU/544.nab_r/run/run_base_refrate_gem5_se-m64.0000/
Process stdout file: /home/user/PrIDE/performance/gem5/stats/pride_multiprogram_16GBmem_250Mn.SPEC2017.C4/RFM5.BR2.4C/mix7/mix7.out_2
Process stderr file: /home/user/PrIDE/performance/gem5/stats/pride_multiprogram_16GBmem_250Mn.SPEC2017.C4/RFM5.BR2.4C/mix7/mix7.err_2
Benchmark- 3   bwaves
Selected benchmark
--> bwaves
CMD: ['/opt/spec2017/benchspec/CPU/503.bwaves_r/run/run_base_refrate_gem5_se-m64.0000/bwaves_r_base.gem5_se-m64', '/opt/spec2017/benchspec/CPU/503.bwaves_r/run/run_base_refrate_gem5_se-m64.0000/bwaves_1']
CWD: /opt/spec2017/benchspec/CPU/503.bwaves_r/run/run_base_refrate_gem5_se-m64.0000/
Process stdout file: /home/user/PrIDE/performance/gem5/stats/pride_multiprogram_16GBmem_250Mn.SPEC2017.C4/RFM5.BR2.4C/mix7/mix7.out_3
Process stderr file: /home/user/PrIDE/performance/gem5/stats/pride_multiprogram_16GBmem_250Mn.SPEC2017.C4/RFM5.BR2.4C/mix7/mix7.err_3
Workload-0: 
['/opt/spec2017/benchspec/CPU/511.povray_r/run/run_base_refrate_gem5_se-m64.0000/povray_r_base.gem5_se-m64', '/opt/spec2017/benchspec/CPU/511.povray_r/run/run_base_refrate_gem5_se-m64.0000/SPEC-benchmark-ref.ini']
Workload-1: 
['/opt/spec2017/benchspec/CPU/554.roms_r/run/run_base_refrate_gem5_se-m64.0000/roms_r_base.gem5_se-m64']
Workload-2: 
['/opt/spec2017/benchspec/CPU/544.nab_r/run/run_base_refrate_gem5_se-m64.0000/nab_r_base.gem5_se-m64', '1am0', '1122214447', '122']
Workload-3: 
['/opt/spec2017/benchspec/CPU/503.bwaves_r/run/run_base_refrate_gem5_se-m64.0000/bwaves_r_base.gem5_se-m64', '/opt/spec2017/benchspec/CPU/503.bwaves_r/run/run_base_refrate_gem5_se-m64.0000/bwaves_1']
defense_enable:  True  detector:  MG  mitigation:  RFM  threshold:  800
mg_entries:  1700
rfm_maxacts_per_trefi:  79 rfm_per_trefi:  5 rfm_blast_radius:  2
Switch at curTick count:10000
warn: membus.master is deprecated. `master` is now called `mem_side_ports`
warn: No dot file generated. Please install pydot to generate the dot file and pdf.
info: Entering event queue @ 15651257077332.  Starting simulation...
info: Entering event queue @ 15651257087332.  Starting simulation...
warn: PowerState: Already in the requested power state, request ignored
Switched CPUS @ tick 15651257087332
switching cpus
**** REAL SIMULATION ****
info: Entering event queue @ 15651257087655.  Starting simulation...
15654590410665: Event_285: system.switch_cpus3 progress event, total committed:39452342, progress insts committed: 39452342, IPC: 03.94129
15654590410665: Event_284: system.switch_cpus2 progress event, total committed:26431410, progress insts committed: 26431410, IPC: 002.6405
15654590410665: Event_283: system.switch_cpus1 progress event, total committed:8728615, progress insts committed: 8728615, IPC: 0.871989
15654590410665: Event_282: system.switch_cpus0 progress event, total committed:45132688, progress insts committed: 45132688, IPC: 04.50876
15657923743998: Event_282: system.switch_cpus0 progress event, total committed:89246181, progress insts committed: 44113493, IPC: 04.40694
15657923743998: Event_283: system.switch_cpus1 progress event, total committed:17403117, progress insts committed: 8674502, IPC: 0.866583
15657923743998: Event_284: system.switch_cpus2 progress event, total committed:54932430, progress insts committed: 28501020, IPC: 02.84725
15657923743998: Event_285: system.switch_cpus3 progress event, total committed:78761313, progress insts committed: 39308971, IPC: 03.92697
15661257077331: Event_285: system.switch_cpus3 progress event, total committed:118759542, progress insts committed: 39998229, IPC: 03.99582
15661257077331: Event_284: system.switch_cpus2 progress event, total committed:83264263, progress insts committed: 28331833, IPC: 02.83035
15661257077331: Event_283: system.switch_cpus1 progress event, total committed:26139336, progress insts committed: 8736219, IPC: 0.872748
15661257077331: Event_282: system.switch_cpus0 progress event, total committed:134259036, progress insts committed: 45012855, IPC: 04.49678
15664590410664: Event_282: system.switch_cpus0 progress event, total committed:179374503, progress insts committed: 45115467, IPC: 04.50704
15664590410664: Event_283: system.switch_cpus1 progress event, total committed:36275079, progress insts committed: 10135743, IPC: 01.01256
15664590410664: Event_284: system.switch_cpus2 progress event, total committed:108487457, progress insts committed: 25223194, IPC: 002.5198
15664590410664: Event_285: system.switch_cpus3 progress event, total committed:156413975, progress insts committed: 37654433, IPC: 03.76168
15667923743997: Event_285: system.switch_cpus3 progress event, total committed:185520970, progress insts committed: 29106995, IPC: 02.90779
15667923743997: Event_284: system.switch_cpus2 progress event, total committed:131535626, progress insts committed: 23048169, IPC: 02.30251
15667923743997: Event_283: system.switch_cpus1 progress event, total committed:44852208, progress insts committed: 8577129, IPC: 0.856855
15667923743997: Event_282: system.switch_cpus0 progress event, total committed:224278208, progress insts committed: 44903705, IPC: 04.48588
15671257077330: Event_282: system.switch_cpus0 progress event, total committed:269444173, progress insts committed: 45165965, IPC: 04.51208
15671257077330: Event_283: system.switch_cpus1 progress event, total committed:51757404, progress insts committed: 6905196, IPC: 0.689829
15671257077330: Event_284: system.switch_cpus2 progress event, total committed:155686816, progress insts committed: 24151190, IPC: 002.4127
15671257077330: Event_285: system.switch_cpus3 progress event, total committed:226770979, progress insts committed: 41250009, IPC: 04.12088
15674590410663: Event_285: system.switch_cpus3 progress event, total committed:265991501, progress insts committed: 39220522, IPC: 03.91813
15674590410663: Event_284: system.switch_cpus2 progress event, total committed:183391554, progress insts committed: 27704738, IPC: 002.7677
15674590410663: Event_283: system.switch_cpus1 progress event, total committed:78075932, progress insts committed: 26318528, IPC: 02.62922
15674590410663: Event_282: system.switch_cpus0 progress event, total committed:314672667, progress insts committed: 45228494, IPC: 04.51833
15677923743996: Event_282: system.switch_cpus0 progress event, total committed:359905063, progress insts committed: 45232396, IPC: 04.51872
15677923743996: Event_283: system.switch_cpus1 progress event, total committed:104669695, progress insts committed: 26593763, IPC: 02.65672
15677923743996: Event_284: system.switch_cpus2 progress event, total committed:211771712, progress insts committed: 28380158, IPC: 02.83518
15677923743996: Event_285: system.switch_cpus3 progress event, total committed:306346287, progress insts committed: 40354786, IPC: 04.03144
15681257077329: Event_285: system.switch_cpus3 progress event, total committed:346721805, progress insts committed: 40375518, IPC: 04.03351
15681257077329: Event_284: system.switch_cpus2 progress event, total committed:239438890, progress insts committed: 27667178, IPC: 02.76395
15681257077329: Event_283: system.switch_cpus1 progress event, total committed:131177150, progress insts committed: 26507455, IPC: 02.64809
15681257077329: Event_282: system.switch_cpus0 progress event, total committed:405244293, progress insts committed: 45339230, IPC: 04.52939
Exiting @ tick 15684571605789 because a thread reached the max instruction count
