Command line:
./runscript_pride.sh mix20 RFM1.BR2.4C 4 2017 --rh_defense --rh_mitigation=RFM --rh_rfm_per_trefi=1 --rh_rfm_blast_radius=2 --rh_rfm_maxacts_per_trefi=79
Global frequency set at 1000000000000 ticks per second
RFM details - rfm_act_threshold: 79, blast_radius: 2, delay_per_rfm: 175000 ps. sample_rate: 0.012500
RH Defense config: RFM, Bus Delay: 0, rfms_per_trefi: 1, rfm_act_threshold: 79, blast_radius: 2,rfm_delay_per_act: 45000 ps.
DRAM config: RowsPerBank: 65536, BanksPerRank: 32, RanksPerChannel: 1
warn: Sockets disabled, not accepting gdb connections
warn: CoherentXBar system.cpu0.mmucache.mmubus has no snooping ports attached!
warn: CoherentXBar system.cpu1.mmucache.mmubus has no snooping ports attached!
warn: CoherentXBar system.cpu2.mmucache.mmubus has no snooping ports attached!
warn: CoherentXBar system.cpu3.mmucache.mmubus has no snooping ports attached!
warn: Checkpoints for file descriptors currently do not work.
warn: Checkpoints for file descriptors currently do not work.
warn: Checkpoints for file descriptors currently do not work.
warn: Checkpoints for file descriptors currently do not work.
gem5 Simulator System.  http://gem5.org
gem5 is copyrighted software; use the --copyright option for details.

gem5 version 20.1.0.5
gem5 compiled Jul 12 2024 12:42:38
gem5 started Jul 22 2024 14:34:34
gem5 executing on a07dda8b130c, pid 88180
command line: /home/user/PrIDE/performance/gem5/build/X86/gem5.opt --outdir=/home/user/PrIDE/performance/gem5/stats/pride_multiprogram_16GBmem_250Mn.SPEC2017.C4/RFM1.BR2.4C/mix20 /home/user/PrIDE/performance/gem5/configs/example/se_rq_spec_config_multicore.py --redirects /lib64=/home/utils/gcc-6.2.0/lib64 --benchmark=mix20 --benchmark_stdout=/home/user/PrIDE/performance/gem5/stats/pride_multiprogram_16GBmem_250Mn.SPEC2017.C4/RFM1.BR2.4C/mix20/mix20.out --benchmark_stderr=/home/user/PrIDE/performance/gem5/stats/pride_multiprogram_16GBmem_250Mn.SPEC2017.C4/RFM1.BR2.4C/mix20/mix20.err --spec-version=2017 --rh_defense --rh_mitigation=RFM --rh_rfm_per_trefi=1 --rh_rfm_blast_radius=2 --rh_rfm_maxacts_per_trefi=79 --num-cpus=4 --mem-size=16GB --mem-type=DDR5_2400_32x4 --mem-ranks=1 --checkpoint-dir=/home/user/PrIDE/performance/gem5/cpts/multiprogram_16GBmem_25Bn.SPEC2017.C4/mix20-1-ref-x86 --checkpoint-restore=25000000000 --at-instruction --cpu-type DerivO3CPU --caches --l2cache --l1d_size=32kB --l1i_size=32kB --l2_size=256kB --l1d_assoc=8 --l1i_assoc=8 --l2_assoc=16 --maxinsts=250000000 --prog-interval=300Hz

info: Standard input is not a terminal, disabling listeners.
Benchmark- 0   deepsjeng
Selected benchmark
--> deepsjeng
CMD: ['/opt/spec2017/benchspec/CPU/531.deepsjeng_r/run/run_base_refrate_gem5_se-m64.0000/deepsjeng_r_base.gem5_se-m64', '/opt/spec2017/benchspec/CPU/531.deepsjeng_r/run/run_base_refrate_gem5_se-m64.0000/ref.txt']
CWD: /opt/spec2017/benchspec/CPU/531.deepsjeng_r/run/run_base_refrate_gem5_se-m64.0000/
Process stdout file: /home/user/PrIDE/performance/gem5/stats/pride_multiprogram_16GBmem_250Mn.SPEC2017.C4/RFM1.BR2.4C/mix20/mix20.out_0
Process stderr file: /home/user/PrIDE/performance/gem5/stats/pride_multiprogram_16GBmem_250Mn.SPEC2017.C4/RFM1.BR2.4C/mix20/mix20.err_0
Benchmark- 1   mcf
Selected benchmark
--> mcf
CMD: ['/opt/spec2017/benchspec/CPU/505.mcf_r/run/run_base_refrate_gem5_se-m64.0000/mcf_r_base.gem5_se-m64', '/opt/spec2017/benchspec/CPU/505.mcf_r/run/run_base_refrate_gem5_se-m64.0000/inp.in']
CWD: /opt/spec2017/benchspec/CPU/505.mcf_r/run/run_base_refrate_gem5_se-m64.0000/
Process stdout file: /home/user/PrIDE/performance/gem5/stats/pride_multiprogram_16GBmem_250Mn.SPEC2017.C4/RFM1.BR2.4C/mix20/mix20.out_1
Process stderr file: /home/user/PrIDE/performance/gem5/stats/pride_multiprogram_16GBmem_250Mn.SPEC2017.C4/RFM1.BR2.4C/mix20/mix20.err_1
Benchmark- 2   namd
Selected benchmark
--> namd
CMD: ['/opt/spec2017/benchspec/CPU/508.namd_r/run/run_base_refrate_gem5_se-m64.0000/namd_r_base.gem5_se-m64', '--input', '/opt/spec2017/benchspec/CPU/508.namd_r/run/run_base_refrate_gem5_se-m64.0000/apoa1.input', '--output', '/opt/spec2017/benchspec/CPU/508.namd_r/run/run_base_refrate_gem5_se-m64.0000/apoa1.ref.output', '--iterations', '65']
CWD: /opt/spec2017/benchspec/CPU/508.namd_r/run/run_base_refrate_gem5_se-m64.0000/
Process stdout file: /home/user/PrIDE/performance/gem5/stats/pride_multiprogram_16GBmem_250Mn.SPEC2017.C4/RFM1.BR2.4C/mix20/mix20.out_2
Process stderr file: /home/user/PrIDE/performance/gem5/stats/pride_multiprogram_16GBmem_250Mn.SPEC2017.C4/RFM1.BR2.4C/mix20/mix20.err_2
Benchmark- 3   roms
Selected benchmark
--> roms
CMD: ['/opt/spec2017/benchspec/CPU/554.roms_r/run/run_base_refrate_gem5_se-m64.0000/roms_r_base.gem5_se-m64']
CWD: /opt/spec2017/benchspec/CPU/554.roms_r/run/run_base_refrate_gem5_se-m64.0000/
Process stdout file: /home/user/PrIDE/performance/gem5/stats/pride_multiprogram_16GBmem_250Mn.SPEC2017.C4/RFM1.BR2.4C/mix20/mix20.out_3
Process stderr file: /home/user/PrIDE/performance/gem5/stats/pride_multiprogram_16GBmem_250Mn.SPEC2017.C4/RFM1.BR2.4C/mix20/mix20.err_3
Workload-0: 
['/opt/spec2017/benchspec/CPU/531.deepsjeng_r/run/run_base_refrate_gem5_se-m64.0000/deepsjeng_r_base.gem5_se-m64', '/opt/spec2017/benchspec/CPU/531.deepsjeng_r/run/run_base_refrate_gem5_se-m64.0000/ref.txt']
Workload-1: 
['/opt/spec2017/benchspec/CPU/505.mcf_r/run/run_base_refrate_gem5_se-m64.0000/mcf_r_base.gem5_se-m64', '/opt/spec2017/benchspec/CPU/505.mcf_r/run/run_base_refrate_gem5_se-m64.0000/inp.in']
Workload-2: 
['/opt/spec2017/benchspec/CPU/508.namd_r/run/run_base_refrate_gem5_se-m64.0000/namd_r_base.gem5_se-m64', '--input', '/opt/spec2017/benchspec/CPU/508.namd_r/run/run_base_refrate_gem5_se-m64.0000/apoa1.input', '--output', '/opt/spec2017/benchspec/CPU/508.namd_r/run/run_base_refrate_gem5_se-m64.0000/apoa1.ref.output', '--iterations', '65']
Workload-3: 
['/opt/spec2017/benchspec/CPU/554.roms_r/run/run_base_refrate_gem5_se-m64.0000/roms_r_base.gem5_se-m64']
defense_enable:  True  detector:  MG  mitigation:  RFM  threshold:  800
mg_entries:  1700
rfm_maxacts_per_trefi:  79 rfm_per_trefi:  1 rfm_blast_radius:  2
Switch at curTick count:10000
warn: membus.master is deprecated. `master` is now called `mem_side_ports`
warn: No dot file generated. Please install pydot to generate the dot file and pdf.
info: Entering event queue @ 13945158484398.  Starting simulation...
warn: PowerState: Already in the requested power state, request ignored
Switched CPUS @ tick 13945158494398
switching cpus
**** REAL SIMULATION ****
info: Entering event queue @ 13945158494398.  Starting simulation...
13948491817731: Event_285: system.switch_cpus3 progress event, total committed:14198857, progress insts committed: 14198857, IPC: 01.41847
13948491817731: Event_284: system.switch_cpus2 progress event, total committed:32747320, progress insts committed: 32747320, IPC: 03.27146
13948491817731: Event_283: system.switch_cpus1 progress event, total committed:11268238, progress insts committed: 11268238, IPC: 001.1257
13948491817731: Event_282: system.switch_cpus0 progress event, total committed:21498231, progress insts committed: 21498231, IPC: 02.14767
13951825151064: Event_282: system.switch_cpus0 progress event, total committed:43931440, progress insts committed: 22433209, IPC: 02.24108
13951825151064: Event_283: system.switch_cpus1 progress event, total committed:22947808, progress insts committed: 11679570, IPC: 01.16679
13951825151064: Event_284: system.switch_cpus2 progress event, total committed:65305847, progress insts committed: 32558527, IPC: 003.2526
13951825151064: Event_285: system.switch_cpus3 progress event, total committed:30399191, progress insts committed: 16200334, IPC: 01.61841
13955158484397: Event_285: system.switch_cpus3 progress event, total committed:41459155, progress insts committed: 11059964, IPC: 01.10489
13955158484397: Event_284: system.switch_cpus2 progress event, total committed:97378764, progress insts committed: 32072917, IPC: 03.20408
13955158484397: Event_283: system.switch_cpus1 progress event, total committed:34519959, progress insts committed: 11572151, IPC: 01.15606
13955158484397: Event_282: system.switch_cpus0 progress event, total committed:65816467, progress insts committed: 21885027, IPC: 02.18631
13958491817730: Event_282: system.switch_cpus0 progress event, total committed:88304452, progress insts committed: 22487985, IPC: 02.24655
13958491817730: Event_283: system.switch_cpus1 progress event, total committed:46186893, progress insts committed: 11666934, IPC: 01.16553
13958491817730: Event_284: system.switch_cpus2 progress event, total committed:129702929, progress insts committed: 32324165, IPC: 03.22918
13958491817730: Event_285: system.switch_cpus3 progress event, total committed:49608135, progress insts committed: 8148980, IPC: 0.814083
13961825151063: Event_285: system.switch_cpus3 progress event, total committed:58177819, progress insts committed: 8569684, IPC: 0.856111
13961825151063: Event_284: system.switch_cpus2 progress event, total committed:163049066, progress insts committed: 33346137, IPC: 03.33128
13961825151063: Event_283: system.switch_cpus1 progress event, total committed:58385750, progress insts committed: 12198857, IPC: 01.21867
13961825151063: Event_282: system.switch_cpus0 progress event, total committed:110809481, progress insts committed: 22505029, IPC: 02.24825
13965158484396: Event_282: system.switch_cpus0 progress event, total committed:133281843, progress insts committed: 22472362, IPC: 02.24499
13965158484396: Event_283: system.switch_cpus1 progress event, total committed:70450857, progress insts committed: 12065107, IPC: 001.2053
13965158484396: Event_284: system.switch_cpus2 progress event, total committed:195731476, progress insts committed: 32682410, IPC: 03.26497
13965158484396: Event_285: system.switch_cpus3 progress event, total committed:65874990, progress insts committed: 7697171, IPC: 0.768947
13968491817729: Event_285: system.switch_cpus3 progress event, total committed:70643822, progress insts committed: 4768832, IPC: 0.476406
13968491817729: Event_284: system.switch_cpus2 progress event, total committed:227288572, progress insts committed: 31557096, IPC: 03.15255
13968491817729: Event_283: system.switch_cpus1 progress event, total committed:81514916, progress insts committed: 11064059, IPC: 001.1053
13968491817729: Event_282: system.switch_cpus0 progress event, total committed:154601847, progress insts committed: 21320004, IPC: 02.12987
13971825151062: Event_282: system.switch_cpus0 progress event, total committed:175730971, progress insts committed: 21129124, IPC: 002.1108
13971825151062: Event_283: system.switch_cpus1 progress event, total committed:92345709, progress insts committed: 10830793, IPC: 0001.082
13971825151062: Event_284: system.switch_cpus2 progress event, total committed:258193835, progress insts committed: 30905263, IPC: 03.08744
13971825151062: Event_285: system.switch_cpus3 progress event, total committed:75298341, progress insts committed: 4654519, IPC: 0.464986
13975158484395: Event_285: system.switch_cpus3 progress event, total committed:80571731, progress insts committed: 5273390, IPC: 0.526812
13975158484395: Event_284: system.switch_cpus2 progress event, total committed:289663240, progress insts committed: 31469405, IPC: 03.14379
13975158484395: Event_283: system.switch_cpus1 progress event, total committed:103813731, progress insts committed: 11468022, IPC: 01.14566
13975158484395: Event_282: system.switch_cpus0 progress event, total committed:197088614, progress insts committed: 21357643, IPC: 02.13363
Exiting @ tick 13975891116003 because a thread reached the max instruction count
