Command line:
./runscript_pride.sh mix21 RFM5.BR2.4C 4 2017 --rh_defense --rh_mitigation=RFM --rh_rfm_per_trefi=5 --rh_rfm_blast_radius=2 --rh_rfm_maxacts_per_trefi=79
Global frequency set at 1000000000000 ticks per second
RFM details - rfm_act_threshold: 15, blast_radius: 2, delay_per_rfm: 175000 ps. sample_rate: 0.062500
RH Defense config: RFM, Bus Delay: 0, rfms_per_trefi: 5, rfm_act_threshold: 15, blast_radius: 2,rfm_delay_per_act: 45000 ps.
DRAM config: RowsPerBank: 65536, BanksPerRank: 32, RanksPerChannel: 1
warn: Sockets disabled, not accepting gdb connections
warn: CoherentXBar system.cpu0.mmucache.mmubus has no snooping ports attached!
warn: CoherentXBar system.cpu1.mmucache.mmubus has no snooping ports attached!
warn: CoherentXBar system.cpu2.mmucache.mmubus has no snooping ports attached!
warn: CoherentXBar system.cpu3.mmucache.mmubus has no snooping ports attached!
warn: Checkpoints for file descriptors currently do not work.
warn: Checkpoints for file descriptors currently do not work.
warn: Checkpoints for file descriptors currently do not work.
warn: Checkpoints for file descriptors currently do not work.
gem5 Simulator System.  http://gem5.org
gem5 is copyrighted software; use the --copyright option for details.

gem5 version 20.1.0.5
gem5 compiled Jul 12 2024 12:42:38
gem5 started Jul 22 2024 17:49:37
gem5 executing on a07dda8b130c, pid 89592
command line: /home/user/PrIDE/performance/gem5/build/X86/gem5.opt --outdir=/home/user/PrIDE/performance/gem5/stats/pride_multiprogram_16GBmem_250Mn.SPEC2017.C4/RFM5.BR2.4C/mix21 /home/user/PrIDE/performance/gem5/configs/example/se_rq_spec_config_multicore.py --redirects /lib64=/home/utils/gcc-6.2.0/lib64 --benchmark=mix21 --benchmark_stdout=/home/user/PrIDE/performance/gem5/stats/pride_multiprogram_16GBmem_250Mn.SPEC2017.C4/RFM5.BR2.4C/mix21/mix21.out --benchmark_stderr=/home/user/PrIDE/performance/gem5/stats/pride_multiprogram_16GBmem_250Mn.SPEC2017.C4/RFM5.BR2.4C/mix21/mix21.err --spec-version=2017 --rh_defense --rh_mitigation=RFM --rh_rfm_per_trefi=5 --rh_rfm_blast_radius=2 --rh_rfm_maxacts_per_trefi=79 --num-cpus=4 --mem-size=16GB --mem-type=DDR5_2400_32x4 --mem-ranks=1 --checkpoint-dir=/home/user/PrIDE/performance/gem5/cpts/multiprogram_16GBmem_25Bn.SPEC2017.C4/mix21-1-ref-x86 --checkpoint-restore=25000000000 --at-instruction --cpu-type DerivO3CPU --caches --l2cache --l1d_size=32kB --l1i_size=32kB --l2_size=256kB --l1d_assoc=8 --l1i_assoc=8 --l2_assoc=16 --maxinsts=250000000 --prog-interval=300Hz

info: Standard input is not a terminal, disabling listeners.
Benchmark- 0   povray
Selected benchmark
--> povray
CMD: ['/opt/spec2017/benchspec/CPU/511.povray_r/run/run_base_refrate_gem5_se-m64.0000/povray_r_base.gem5_se-m64', '/opt/spec2017/benchspec/CPU/511.povray_r/run/run_base_refrate_gem5_se-m64.0000/SPEC-benchmark-ref.ini']
CWD: /opt/spec2017/benchspec/CPU/511.povray_r/run/run_base_refrate_gem5_se-m64.0000/
Process stdout file: /home/user/PrIDE/performance/gem5/stats/pride_multiprogram_16GBmem_250Mn.SPEC2017.C4/RFM5.BR2.4C/mix21/mix21.out_0
Process stderr file: /home/user/PrIDE/performance/gem5/stats/pride_multiprogram_16GBmem_250Mn.SPEC2017.C4/RFM5.BR2.4C/mix21/mix21.err_0
Benchmark- 1   namd
Selected benchmark
--> namd
CMD: ['/opt/spec2017/benchspec/CPU/508.namd_r/run/run_base_refrate_gem5_se-m64.0000/namd_r_base.gem5_se-m64', '--input', '/opt/spec2017/benchspec/CPU/508.namd_r/run/run_base_refrate_gem5_se-m64.0000/apoa1.input', '--output', '/opt/spec2017/benchspec/CPU/508.namd_r/run/run_base_refrate_gem5_se-m64.0000/apoa1.ref.output', '--iterations', '65']
CWD: /opt/spec2017/benchspec/CPU/508.namd_r/run/run_base_refrate_gem5_se-m64.0000/
Process stdout file: /home/user/PrIDE/performance/gem5/stats/pride_multiprogram_16GBmem_250Mn.SPEC2017.C4/RFM5.BR2.4C/mix21/mix21.out_1
Process stderr file: /home/user/PrIDE/performance/gem5/stats/pride_multiprogram_16GBmem_250Mn.SPEC2017.C4/RFM5.BR2.4C/mix21/mix21.err_1
Benchmark- 2   nab
Selected benchmark
--> nab
CMD: ['/opt/spec2017/benchspec/CPU/544.nab_r/run/run_base_refrate_gem5_se-m64.0000/nab_r_base.gem5_se-m64', '1am0', '1122214447', '122']
CWD: /opt/spec2017/benchspec/CPU/544.nab_r/run/run_base_refrate_gem5_se-m64.0000/
Process stdout file: /home/user/PrIDE/performance/gem5/stats/pride_multiprogram_16GBmem_250Mn.SPEC2017.C4/RFM5.BR2.4C/mix21/mix21.out_2
Process stderr file: /home/user/PrIDE/performance/gem5/stats/pride_multiprogram_16GBmem_250Mn.SPEC2017.C4/RFM5.BR2.4C/mix21/mix21.err_2
Benchmark- 3   roms
Selected benchmark
--> roms
CMD: ['/opt/spec2017/benchspec/CPU/554.roms_r/run/run_base_refrate_gem5_se-m64.0000/roms_r_base.gem5_se-m64']
CWD: /opt/spec2017/benchspec/CPU/554.roms_r/run/run_base_refrate_gem5_se-m64.0000/
Process stdout file: /home/user/PrIDE/performance/gem5/stats/pride_multiprogram_16GBmem_250Mn.SPEC2017.C4/RFM5.BR2.4C/mix21/mix21.out_3
Process stderr file: /home/user/PrIDE/performance/gem5/stats/pride_multiprogram_16GBmem_250Mn.SPEC2017.C4/RFM5.BR2.4C/mix21/mix21.err_3
Workload-0: 
['/opt/spec2017/benchspec/CPU/511.povray_r/run/run_base_refrate_gem5_se-m64.0000/povray_r_base.gem5_se-m64', '/opt/spec2017/benchspec/CPU/511.povray_r/run/run_base_refrate_gem5_se-m64.0000/SPEC-benchmark-ref.ini']
Workload-1: 
['/opt/spec2017/benchspec/CPU/508.namd_r/run/run_base_refrate_gem5_se-m64.0000/namd_r_base.gem5_se-m64', '--input', '/opt/spec2017/benchspec/CPU/508.namd_r/run/run_base_refrate_gem5_se-m64.0000/apoa1.input', '--output', '/opt/spec2017/benchspec/CPU/508.namd_r/run/run_base_refrate_gem5_se-m64.0000/apoa1.ref.output', '--iterations', '65']
Workload-2: 
['/opt/spec2017/benchspec/CPU/544.nab_r/run/run_base_refrate_gem5_se-m64.0000/nab_r_base.gem5_se-m64', '1am0', '1122214447', '122']
Workload-3: 
['/opt/spec2017/benchspec/CPU/554.roms_r/run/run_base_refrate_gem5_se-m64.0000/roms_r_base.gem5_se-m64']
defense_enable:  True  detector:  MG  mitigation:  RFM  threshold:  800
mg_entries:  1700
rfm_maxacts_per_trefi:  79 rfm_per_trefi:  5 rfm_blast_radius:  2
Switch at curTick count:10000
warn: membus.master is deprecated. `master` is now called `mem_side_ports`
warn: No dot file generated. Please install pydot to generate the dot file and pdf.
info: Entering event queue @ 13945158483732.  Starting simulation...
info: Entering event queue @ 13945158493732.  Starting simulation...
warn: PowerState: Already in the requested power state, request ignored
Switched CPUS @ tick 13945158493732
switching cpus
**** REAL SIMULATION ****
info: Entering event queue @ 13945158494055.  Starting simulation...
13948491817065: Event_285: system.switch_cpus3 progress event, total committed:15218353, progress insts committed: 15218353, IPC: 01.52031
13948491817065: Event_284: system.switch_cpus2 progress event, total committed:41009120, progress insts committed: 41009120, IPC: 04.09681
13948491817065: Event_283: system.switch_cpus1 progress event, total committed:33472336, progress insts committed: 33472336, IPC: 03.34389
13948491817065: Event_282: system.switch_cpus0 progress event, total committed:44769099, progress insts committed: 44769099, IPC: 04.47243
13951825150398: Event_282: system.switch_cpus0 progress event, total committed:90665619, progress insts committed: 45896520, IPC: 04.58506
13951825150398: Event_283: system.switch_cpus1 progress event, total committed:66962811, progress insts committed: 33490475, IPC: 003.3457
13951825150398: Event_284: system.switch_cpus2 progress event, total committed:84826611, progress insts committed: 43817491, IPC: 04.37737
13951825150398: Event_285: system.switch_cpus3 progress event, total committed:31426999, progress insts committed: 16208646, IPC: 01.61924
13955158483731: Event_285: system.switch_cpus3 progress event, total committed:42387905, progress insts committed: 10960906, IPC: 01.09499
13955158483731: Event_284: system.switch_cpus2 progress event, total committed:126529489, progress insts committed: 41702878, IPC: 04.16612
13955158483731: Event_283: system.switch_cpus1 progress event, total committed:99539038, progress insts committed: 32576227, IPC: 03.25437
13955158483731: Event_282: system.switch_cpus0 progress event, total committed:134634557, progress insts committed: 43968938, IPC: 004.3925
13958491817064: Event_282: system.switch_cpus0 progress event, total committed:179672495, progress insts committed: 45037938, IPC: 04.49929
13958491817064: Event_283: system.switch_cpus1 progress event, total committed:132238046, progress insts committed: 32699008, IPC: 03.26663
13958491817064: Event_284: system.switch_cpus2 progress event, total committed:168970079, progress insts committed: 42440590, IPC: 04.23981
13958491817064: Event_285: system.switch_cpus3 progress event, total committed:50740632, progress insts committed: 8352727, IPC: 0.834437
13961825150397: Event_285: system.switch_cpus3 progress event, total committed:59735467, progress insts committed: 8994835, IPC: 0.898584
13961825150397: Event_284: system.switch_cpus2 progress event, total committed:213443462, progress insts committed: 44473383, IPC: 04.44289
13961825150397: Event_283: system.switch_cpus1 progress event, total committed:166234130, progress insts committed: 33996084, IPC: 03.39621
13961825150397: Event_282: system.switch_cpus0 progress event, total committed:224789476, progress insts committed: 45116981, IPC: 04.50719
13965158483730: Event_282: system.switch_cpus0 progress event, total committed:269659199, progress insts committed: 44869723, IPC: 04.48249
13965158483730: Event_283: system.switch_cpus1 progress event, total committed:199650840, progress insts committed: 33416710, IPC: 03.33833
13965158483730: Event_284: system.switch_cpus2 progress event, total committed:257070732, progress insts committed: 43627270, IPC: 04.35836
13965158483730: Event_285: system.switch_cpus3 progress event, total committed:67112543, progress insts committed: 7377076, IPC: 00.73697
13968491817063: Event_285: system.switch_cpus3 progress event, total committed:72132071, progress insts committed: 5019528, IPC: 0.501451
13968491817063: Event_284: system.switch_cpus2 progress event, total committed:298669323, progress insts committed: 41598591, IPC: 004.1557
13968491817063: Event_283: system.switch_cpus1 progress event, total committed:232101474, progress insts committed: 32450634, IPC: 03.24182
13968491817063: Event_282: system.switch_cpus0 progress event, total committed:314862588, progress insts committed: 45203389, IPC: 04.51582
13971825150396: Event_282: system.switch_cpus0 progress event, total committed:360096006, progress insts committed: 45233418, IPC: 04.51882
13971825150396: Event_283: system.switch_cpus1 progress event, total committed:263510617, progress insts committed: 31409143, IPC: 03.13777
13971825150396: Event_284: system.switch_cpus2 progress event, total committed:340238863, progress insts committed: 41569540, IPC: 004.1528
13971825150396: Event_285: system.switch_cpus3 progress event, total committed:76998546, progress insts committed: 4866475, IPC: 0.486161
13975158483729: Event_285: system.switch_cpus3 progress event, total committed:85089008, progress insts committed: 8090462, IPC: 0.808237
13975158483729: Event_284: system.switch_cpus2 progress event, total committed:382916014, progress insts committed: 42677151, IPC: 04.26345
13975158483729: Event_283: system.switch_cpus1 progress event, total committed:295918037, progress insts committed: 32407420, IPC: 003.2375
13975158483729: Event_282: system.switch_cpus0 progress event, total committed:405333008, progress insts committed: 45237002, IPC: 04.51918
Exiting @ tick 13975273484253 because a thread reached the max instruction count
