
---------- Begin Simulation Statistics ----------
final_tick                               13975927937478                       # Number of ticks from beginning of simulation (restored from checkpoints and never reset)
host_inst_rate                                  95801                       # Simulator instruction rate (inst/s)
host_mem_usage                               17329464                       # Number of bytes of host memory used
host_op_rate                                   133106                       # Simulator op (including micro ops) rate (op/s)
host_seconds                                  5163.65                       # Real time elapsed on the host
host_tick_rate                                5958862                       # Simulator tick rate (ticks/s)
sim_freq                                 1000000000000                       # Frequency of simulated ticks
sim_insts                                   494682671                       # Number of instructions simulated
sim_ops                                     687311546                       # Number of ops (including micro ops) simulated
sim_seconds                                  0.030769                       # Number of seconds simulated
sim_ticks                                 30769453080                       # Number of ticks simulated
system.cpu0.committedInsts                         21                       # Number of instructions committed
system.cpu0.committedOps                           24                       # Number of ops (including micro ops) committed
system.cpu0.idle_fraction                           0                       # Percentage of idle cycles
system.cpu0.l2bus.snoop_filter.hit_multi_requests          584                       # Number of requests hitting in the snoop filter with multiple (>1) holders of the requested data.
system.cpu0.l2bus.snoop_filter.hit_multi_snoops            0                       # Number of snoops hitting in the snoop filter with multiple (>1) holders of the requested data.
system.cpu0.l2bus.snoop_filter.hit_single_requests       299402                       # Number of requests hitting in the snoop filter with a single holder of the requested data.
system.cpu0.l2bus.snoop_filter.hit_single_snoops         1335                       # Number of snoops hitting in the snoop filter with a single holder of the requested data.
system.cpu0.l2bus.snoop_filter.tot_requests       599557                       # Total number of requests made to the snoop filter.
system.cpu0.l2bus.snoop_filter.tot_snoops         1335                       # Total number of snoops made to the snoop filter.
system.cpu0.mmucache.mmubus.snoop_filter.hit_multi_requests            0                       # Number of requests hitting in the snoop filter with multiple (>1) holders of the requested data.
system.cpu0.mmucache.mmubus.snoop_filter.hit_multi_snoops            0                       # Number of snoops hitting in the snoop filter with multiple (>1) holders of the requested data.
system.cpu0.mmucache.mmubus.snoop_filter.hit_single_requests            0                       # Number of requests hitting in the snoop filter with a single holder of the requested data.
system.cpu0.mmucache.mmubus.snoop_filter.hit_single_snoops            0                       # Number of snoops hitting in the snoop filter with a single holder of the requested data.
system.cpu0.mmucache.mmubus.snoop_filter.tot_requests            0                       # Total number of requests made to the snoop filter.
system.cpu0.mmucache.mmubus.snoop_filter.tot_snoops            0                       # Total number of snoops made to the snoop filter.
system.cpu0.not_idle_fraction                       1                       # Percentage of non-idle cycles
system.cpu0.numCycles                              30                       # number of cpu cycles simulated
system.cpu0.numWorkItemsCompleted                   0                       # number of work items this cpu completed
system.cpu0.numWorkItemsStarted                     0                       # number of work items this cpu started
system.cpu0.num_busy_cycles                        30                       # Number of busy cycles
system.cpu0.num_cc_register_reads                   4                       # number of times the CC registers were read
system.cpu0.num_cc_register_writes                  8                       # number of times the CC registers were written
system.cpu0.num_conditional_control_insts            0                       # number of instructions that are conditional controls
system.cpu0.num_fp_alu_accesses                     0                       # Number of float alu accesses
system.cpu0.num_fp_insts                            0                       # number of float instructions
system.cpu0.num_fp_register_reads                   0                       # number of times the floating registers were read
system.cpu0.num_fp_register_writes                  0                       # number of times the floating registers were written
system.cpu0.num_func_calls                          0                       # number of times a function call or return occured
system.cpu0.num_idle_cycles                         0                       # Number of idle cycles
system.cpu0.num_int_alu_accesses                   24                       # Number of integer alu accesses
system.cpu0.num_int_insts                          24                       # number of integer instructions
system.cpu0.num_int_register_reads                 59                       # number of times the integer registers were read
system.cpu0.num_int_register_writes                18                       # number of times the integer registers were written
system.cpu0.num_load_insts                          3                       # Number of load instructions
system.cpu0.num_mem_refs                            9                       # number of memory refs
system.cpu0.num_store_insts                         6                       # Number of store instructions
system.cpu0.num_vec_alu_accesses                    0                       # Number of vector alu accesses
system.cpu0.num_vec_insts                           0                       # number of vector instructions
system.cpu0.num_vec_register_reads                  0                       # number of times the vector registers were read
system.cpu0.num_vec_register_writes                 0                       # number of times the vector registers were written
system.cpu0.op_class::No_OpClass                    0      0.00%      0.00% # Class of executed instruction
system.cpu0.op_class::IntAlu                       15     62.50%     62.50% # Class of executed instruction
system.cpu0.op_class::IntMult                       0      0.00%     62.50% # Class of executed instruction
system.cpu0.op_class::IntDiv                        0      0.00%     62.50% # Class of executed instruction
system.cpu0.op_class::FloatAdd                      0      0.00%     62.50% # Class of executed instruction
system.cpu0.op_class::FloatCmp                      0      0.00%     62.50% # Class of executed instruction
system.cpu0.op_class::FloatCvt                      0      0.00%     62.50% # Class of executed instruction
system.cpu0.op_class::FloatMult                     0      0.00%     62.50% # Class of executed instruction
system.cpu0.op_class::FloatMultAcc                  0      0.00%     62.50% # Class of executed instruction
system.cpu0.op_class::FloatDiv                      0      0.00%     62.50% # Class of executed instruction
system.cpu0.op_class::FloatMisc                     0      0.00%     62.50% # Class of executed instruction
system.cpu0.op_class::FloatSqrt                     0      0.00%     62.50% # Class of executed instruction
system.cpu0.op_class::SimdAdd                       0      0.00%     62.50% # Class of executed instruction
system.cpu0.op_class::SimdAddAcc                    0      0.00%     62.50% # Class of executed instruction
system.cpu0.op_class::SimdAlu                       0      0.00%     62.50% # Class of executed instruction
system.cpu0.op_class::SimdCmp                       0      0.00%     62.50% # Class of executed instruction
system.cpu0.op_class::SimdCvt                       0      0.00%     62.50% # Class of executed instruction
system.cpu0.op_class::SimdMisc                      0      0.00%     62.50% # Class of executed instruction
system.cpu0.op_class::SimdMult                      0      0.00%     62.50% # Class of executed instruction
system.cpu0.op_class::SimdMultAcc                   0      0.00%     62.50% # Class of executed instruction
system.cpu0.op_class::SimdShift                     0      0.00%     62.50% # Class of executed instruction
system.cpu0.op_class::SimdShiftAcc                  0      0.00%     62.50% # Class of executed instruction
system.cpu0.op_class::SimdDiv                       0      0.00%     62.50% # Class of executed instruction
system.cpu0.op_class::SimdSqrt                      0      0.00%     62.50% # Class of executed instruction
system.cpu0.op_class::SimdFloatAdd                  0      0.00%     62.50% # Class of executed instruction
system.cpu0.op_class::SimdFloatAlu                  0      0.00%     62.50% # Class of executed instruction
system.cpu0.op_class::SimdFloatCmp                  0      0.00%     62.50% # Class of executed instruction
system.cpu0.op_class::SimdFloatCvt                  0      0.00%     62.50% # Class of executed instruction
system.cpu0.op_class::SimdFloatDiv                  0      0.00%     62.50% # Class of executed instruction
system.cpu0.op_class::SimdFloatMisc                 0      0.00%     62.50% # Class of executed instruction
system.cpu0.op_class::SimdFloatMult                 0      0.00%     62.50% # Class of executed instruction
system.cpu0.op_class::SimdFloatMultAcc              0      0.00%     62.50% # Class of executed instruction
system.cpu0.op_class::SimdFloatSqrt                 0      0.00%     62.50% # Class of executed instruction
system.cpu0.op_class::SimdReduceAdd                 0      0.00%     62.50% # Class of executed instruction
system.cpu0.op_class::SimdReduceAlu                 0      0.00%     62.50% # Class of executed instruction
system.cpu0.op_class::SimdReduceCmp                 0      0.00%     62.50% # Class of executed instruction
system.cpu0.op_class::SimdFloatReduceAdd            0      0.00%     62.50% # Class of executed instruction
system.cpu0.op_class::SimdFloatReduceCmp            0      0.00%     62.50% # Class of executed instruction
system.cpu0.op_class::SimdAes                       0      0.00%     62.50% # Class of executed instruction
system.cpu0.op_class::SimdAesMix                    0      0.00%     62.50% # Class of executed instruction
system.cpu0.op_class::SimdSha1Hash                  0      0.00%     62.50% # Class of executed instruction
system.cpu0.op_class::SimdSha1Hash2                 0      0.00%     62.50% # Class of executed instruction
system.cpu0.op_class::SimdSha256Hash                0      0.00%     62.50% # Class of executed instruction
system.cpu0.op_class::SimdSha256Hash2               0      0.00%     62.50% # Class of executed instruction
system.cpu0.op_class::SimdShaSigma2                 0      0.00%     62.50% # Class of executed instruction
system.cpu0.op_class::SimdShaSigma3                 0      0.00%     62.50% # Class of executed instruction
system.cpu0.op_class::SimdPredAlu                   0      0.00%     62.50% # Class of executed instruction
system.cpu0.op_class::MemRead                       3     12.50%     75.00% # Class of executed instruction
system.cpu0.op_class::MemWrite                      6     25.00%    100.00% # Class of executed instruction
system.cpu0.op_class::FloatMemRead                  0      0.00%    100.00% # Class of executed instruction
system.cpu0.op_class::FloatMemWrite                 0      0.00%    100.00% # Class of executed instruction
system.cpu0.op_class::IprAccess                     0      0.00%    100.00% # Class of executed instruction
system.cpu0.op_class::InstPrefetch                  0      0.00%    100.00% # Class of executed instruction
system.cpu0.op_class::total                        24                       # Class of executed instruction
system.cpu0.workload.numSyscalls                    0                       # Number of system calls
system.cpu1.Branches                                4                       # Number of branches fetched
system.cpu1.committedInsts                         15                       # Number of instructions committed
system.cpu1.committedOps                           26                       # Number of ops (including micro ops) committed
system.cpu1.idle_fraction                           0                       # Percentage of idle cycles
system.cpu1.l2bus.snoop_filter.hit_multi_requests           48                       # Number of requests hitting in the snoop filter with multiple (>1) holders of the requested data.
system.cpu1.l2bus.snoop_filter.hit_multi_snoops            0                       # Number of snoops hitting in the snoop filter with multiple (>1) holders of the requested data.
system.cpu1.l2bus.snoop_filter.hit_single_requests      2057830                       # Number of requests hitting in the snoop filter with a single holder of the requested data.
system.cpu1.l2bus.snoop_filter.hit_single_snoops          245                       # Number of snoops hitting in the snoop filter with a single holder of the requested data.
system.cpu1.l2bus.snoop_filter.tot_requests      4101180                       # Total number of requests made to the snoop filter.
system.cpu1.l2bus.snoop_filter.tot_snoops          245                       # Total number of snoops made to the snoop filter.
system.cpu1.mmucache.mmubus.snoop_filter.hit_multi_requests            0                       # Number of requests hitting in the snoop filter with multiple (>1) holders of the requested data.
system.cpu1.mmucache.mmubus.snoop_filter.hit_multi_snoops            0                       # Number of snoops hitting in the snoop filter with multiple (>1) holders of the requested data.
system.cpu1.mmucache.mmubus.snoop_filter.hit_single_requests            0                       # Number of requests hitting in the snoop filter with a single holder of the requested data.
system.cpu1.mmucache.mmubus.snoop_filter.hit_single_snoops            0                       # Number of snoops hitting in the snoop filter with a single holder of the requested data.
system.cpu1.mmucache.mmubus.snoop_filter.tot_requests            0                       # Total number of requests made to the snoop filter.
system.cpu1.mmucache.mmubus.snoop_filter.tot_snoops            0                       # Total number of snoops made to the snoop filter.
system.cpu1.not_idle_fraction                       1                       # Percentage of non-idle cycles
system.cpu1.numCycles                              30                       # number of cpu cycles simulated
system.cpu1.numWorkItemsCompleted                   0                       # number of work items this cpu completed
system.cpu1.numWorkItemsStarted                     0                       # number of work items this cpu started
system.cpu1.num_busy_cycles                        30                       # Number of busy cycles
system.cpu1.num_cc_register_reads                  10                       # number of times the CC registers were read
system.cpu1.num_cc_register_writes                  6                       # number of times the CC registers were written
system.cpu1.num_conditional_control_insts            2                       # number of instructions that are conditional controls
system.cpu1.num_fp_alu_accesses                     0                       # Number of float alu accesses
system.cpu1.num_fp_insts                            0                       # number of float instructions
system.cpu1.num_fp_register_reads                   0                       # number of times the floating registers were read
system.cpu1.num_fp_register_writes                  0                       # number of times the floating registers were written
system.cpu1.num_func_calls                          1                       # number of times a function call or return occured
system.cpu1.num_idle_cycles                         0                       # Number of idle cycles
system.cpu1.num_int_alu_accesses                   26                       # Number of integer alu accesses
system.cpu1.num_int_insts                          26                       # number of integer instructions
system.cpu1.num_int_register_reads                 53                       # number of times the integer registers were read
system.cpu1.num_int_register_writes                21                       # number of times the integer registers were written
system.cpu1.num_load_insts                          5                       # Number of load instructions
system.cpu1.num_mem_refs                            6                       # number of memory refs
system.cpu1.num_store_insts                         1                       # Number of store instructions
system.cpu1.num_vec_alu_accesses                    0                       # Number of vector alu accesses
system.cpu1.num_vec_insts                           0                       # number of vector instructions
system.cpu1.num_vec_register_reads                  0                       # number of times the vector registers were read
system.cpu1.num_vec_register_writes                 0                       # number of times the vector registers were written
system.cpu1.op_class::No_OpClass                    0      0.00%      0.00% # Class of executed instruction
system.cpu1.op_class::IntAlu                       20     76.92%     76.92% # Class of executed instruction
system.cpu1.op_class::IntMult                       0      0.00%     76.92% # Class of executed instruction
system.cpu1.op_class::IntDiv                        0      0.00%     76.92% # Class of executed instruction
system.cpu1.op_class::FloatAdd                      0      0.00%     76.92% # Class of executed instruction
system.cpu1.op_class::FloatCmp                      0      0.00%     76.92% # Class of executed instruction
system.cpu1.op_class::FloatCvt                      0      0.00%     76.92% # Class of executed instruction
system.cpu1.op_class::FloatMult                     0      0.00%     76.92% # Class of executed instruction
system.cpu1.op_class::FloatMultAcc                  0      0.00%     76.92% # Class of executed instruction
system.cpu1.op_class::FloatDiv                      0      0.00%     76.92% # Class of executed instruction
system.cpu1.op_class::FloatMisc                     0      0.00%     76.92% # Class of executed instruction
system.cpu1.op_class::FloatSqrt                     0      0.00%     76.92% # Class of executed instruction
system.cpu1.op_class::SimdAdd                       0      0.00%     76.92% # Class of executed instruction
system.cpu1.op_class::SimdAddAcc                    0      0.00%     76.92% # Class of executed instruction
system.cpu1.op_class::SimdAlu                       0      0.00%     76.92% # Class of executed instruction
system.cpu1.op_class::SimdCmp                       0      0.00%     76.92% # Class of executed instruction
system.cpu1.op_class::SimdCvt                       0      0.00%     76.92% # Class of executed instruction
system.cpu1.op_class::SimdMisc                      0      0.00%     76.92% # Class of executed instruction
system.cpu1.op_class::SimdMult                      0      0.00%     76.92% # Class of executed instruction
system.cpu1.op_class::SimdMultAcc                   0      0.00%     76.92% # Class of executed instruction
system.cpu1.op_class::SimdShift                     0      0.00%     76.92% # Class of executed instruction
system.cpu1.op_class::SimdShiftAcc                  0      0.00%     76.92% # Class of executed instruction
system.cpu1.op_class::SimdDiv                       0      0.00%     76.92% # Class of executed instruction
system.cpu1.op_class::SimdSqrt                      0      0.00%     76.92% # Class of executed instruction
system.cpu1.op_class::SimdFloatAdd                  0      0.00%     76.92% # Class of executed instruction
system.cpu1.op_class::SimdFloatAlu                  0      0.00%     76.92% # Class of executed instruction
system.cpu1.op_class::SimdFloatCmp                  0      0.00%     76.92% # Class of executed instruction
system.cpu1.op_class::SimdFloatCvt                  0      0.00%     76.92% # Class of executed instruction
system.cpu1.op_class::SimdFloatDiv                  0      0.00%     76.92% # Class of executed instruction
system.cpu1.op_class::SimdFloatMisc                 0      0.00%     76.92% # Class of executed instruction
system.cpu1.op_class::SimdFloatMult                 0      0.00%     76.92% # Class of executed instruction
system.cpu1.op_class::SimdFloatMultAcc              0      0.00%     76.92% # Class of executed instruction
system.cpu1.op_class::SimdFloatSqrt                 0      0.00%     76.92% # Class of executed instruction
system.cpu1.op_class::SimdReduceAdd                 0      0.00%     76.92% # Class of executed instruction
system.cpu1.op_class::SimdReduceAlu                 0      0.00%     76.92% # Class of executed instruction
system.cpu1.op_class::SimdReduceCmp                 0      0.00%     76.92% # Class of executed instruction
system.cpu1.op_class::SimdFloatReduceAdd            0      0.00%     76.92% # Class of executed instruction
system.cpu1.op_class::SimdFloatReduceCmp            0      0.00%     76.92% # Class of executed instruction
system.cpu1.op_class::SimdAes                       0      0.00%     76.92% # Class of executed instruction
system.cpu1.op_class::SimdAesMix                    0      0.00%     76.92% # Class of executed instruction
system.cpu1.op_class::SimdSha1Hash                  0      0.00%     76.92% # Class of executed instruction
system.cpu1.op_class::SimdSha1Hash2                 0      0.00%     76.92% # Class of executed instruction
system.cpu1.op_class::SimdSha256Hash                0      0.00%     76.92% # Class of executed instruction
system.cpu1.op_class::SimdSha256Hash2               0      0.00%     76.92% # Class of executed instruction
system.cpu1.op_class::SimdShaSigma2                 0      0.00%     76.92% # Class of executed instruction
system.cpu1.op_class::SimdShaSigma3                 0      0.00%     76.92% # Class of executed instruction
system.cpu1.op_class::SimdPredAlu                   0      0.00%     76.92% # Class of executed instruction
system.cpu1.op_class::MemRead                       5     19.23%     96.15% # Class of executed instruction
system.cpu1.op_class::MemWrite                      1      3.85%    100.00% # Class of executed instruction
system.cpu1.op_class::FloatMemRead                  0      0.00%    100.00% # Class of executed instruction
system.cpu1.op_class::FloatMemWrite                 0      0.00%    100.00% # Class of executed instruction
system.cpu1.op_class::IprAccess                     0      0.00%    100.00% # Class of executed instruction
system.cpu1.op_class::InstPrefetch                  0      0.00%    100.00% # Class of executed instruction
system.cpu1.op_class::total                        26                       # Class of executed instruction
system.cpu1.workload.numSyscalls                    0                       # Number of system calls
system.cpu2.Branches                                1                       # Number of branches fetched
system.cpu2.committedInsts                         16                       # Number of instructions committed
system.cpu2.committedOps                           21                       # Number of ops (including micro ops) committed
system.cpu2.idle_fraction                           0                       # Percentage of idle cycles
system.cpu2.l2bus.snoop_filter.hit_multi_requests          116                       # Number of requests hitting in the snoop filter with multiple (>1) holders of the requested data.
system.cpu2.l2bus.snoop_filter.hit_multi_snoops            0                       # Number of snoops hitting in the snoop filter with multiple (>1) holders of the requested data.
system.cpu2.l2bus.snoop_filter.hit_single_requests      1271027                       # Number of requests hitting in the snoop filter with a single holder of the requested data.
system.cpu2.l2bus.snoop_filter.hit_single_snoops          335                       # Number of snoops hitting in the snoop filter with a single holder of the requested data.
system.cpu2.l2bus.snoop_filter.tot_requests      2539786                       # Total number of requests made to the snoop filter.
system.cpu2.l2bus.snoop_filter.tot_snoops          335                       # Total number of snoops made to the snoop filter.
system.cpu2.mmucache.mmubus.snoop_filter.hit_multi_requests            0                       # Number of requests hitting in the snoop filter with multiple (>1) holders of the requested data.
system.cpu2.mmucache.mmubus.snoop_filter.hit_multi_snoops            0                       # Number of snoops hitting in the snoop filter with multiple (>1) holders of the requested data.
system.cpu2.mmucache.mmubus.snoop_filter.hit_single_requests            0                       # Number of requests hitting in the snoop filter with a single holder of the requested data.
system.cpu2.mmucache.mmubus.snoop_filter.hit_single_snoops            0                       # Number of snoops hitting in the snoop filter with a single holder of the requested data.
system.cpu2.mmucache.mmubus.snoop_filter.tot_requests            0                       # Total number of requests made to the snoop filter.
system.cpu2.mmucache.mmubus.snoop_filter.tot_snoops            0                       # Total number of snoops made to the snoop filter.
system.cpu2.not_idle_fraction                       1                       # Percentage of non-idle cycles
system.cpu2.numCycles                              30                       # number of cpu cycles simulated
system.cpu2.numWorkItemsCompleted                   0                       # number of work items this cpu completed
system.cpu2.numWorkItemsStarted                     0                       # number of work items this cpu started
system.cpu2.num_busy_cycles                        30                       # Number of busy cycles
system.cpu2.num_cc_register_reads                   6                       # number of times the CC registers were read
system.cpu2.num_cc_register_writes                  6                       # number of times the CC registers were written
system.cpu2.num_conditional_control_insts            1                       # number of instructions that are conditional controls
system.cpu2.num_fp_alu_accesses                    10                       # Number of float alu accesses
system.cpu2.num_fp_insts                           10                       # number of float instructions
system.cpu2.num_fp_register_reads                  10                       # number of times the floating registers were read
system.cpu2.num_fp_register_writes                  6                       # number of times the floating registers were written
system.cpu2.num_func_calls                          0                       # number of times a function call or return occured
system.cpu2.num_idle_cycles                         0                       # Number of idle cycles
system.cpu2.num_int_alu_accesses                   19                       # Number of integer alu accesses
system.cpu2.num_int_insts                          19                       # number of integer instructions
system.cpu2.num_int_register_reads                 42                       # number of times the integer registers were read
system.cpu2.num_int_register_writes                10                       # number of times the integer registers were written
system.cpu2.num_load_insts                          6                       # Number of load instructions
system.cpu2.num_mem_refs                           10                       # number of memory refs
system.cpu2.num_store_insts                         4                       # Number of store instructions
system.cpu2.num_vec_alu_accesses                    0                       # Number of vector alu accesses
system.cpu2.num_vec_insts                           0                       # number of vector instructions
system.cpu2.num_vec_register_reads                  0                       # number of times the vector registers were read
system.cpu2.num_vec_register_writes                 0                       # number of times the vector registers were written
system.cpu2.op_class::No_OpClass                    0      0.00%      0.00% # Class of executed instruction
system.cpu2.op_class::IntAlu                        9     42.86%     42.86% # Class of executed instruction
system.cpu2.op_class::IntMult                       0      0.00%     42.86% # Class of executed instruction
system.cpu2.op_class::IntDiv                        0      0.00%     42.86% # Class of executed instruction
system.cpu2.op_class::FloatAdd                      0      0.00%     42.86% # Class of executed instruction
system.cpu2.op_class::FloatCmp                      0      0.00%     42.86% # Class of executed instruction
system.cpu2.op_class::FloatCvt                      0      0.00%     42.86% # Class of executed instruction
system.cpu2.op_class::FloatMult                     0      0.00%     42.86% # Class of executed instruction
system.cpu2.op_class::FloatMultAcc                  0      0.00%     42.86% # Class of executed instruction
system.cpu2.op_class::FloatDiv                      0      0.00%     42.86% # Class of executed instruction
system.cpu2.op_class::FloatMisc                     0      0.00%     42.86% # Class of executed instruction
system.cpu2.op_class::FloatSqrt                     0      0.00%     42.86% # Class of executed instruction
system.cpu2.op_class::SimdAdd                       0      0.00%     42.86% # Class of executed instruction
system.cpu2.op_class::SimdAddAcc                    0      0.00%     42.86% # Class of executed instruction
system.cpu2.op_class::SimdAlu                       0      0.00%     42.86% # Class of executed instruction
system.cpu2.op_class::SimdCmp                       0      0.00%     42.86% # Class of executed instruction
system.cpu2.op_class::SimdCvt                       0      0.00%     42.86% # Class of executed instruction
system.cpu2.op_class::SimdMisc                      0      0.00%     42.86% # Class of executed instruction
system.cpu2.op_class::SimdMult                      0      0.00%     42.86% # Class of executed instruction
system.cpu2.op_class::SimdMultAcc                   0      0.00%     42.86% # Class of executed instruction
system.cpu2.op_class::SimdShift                     0      0.00%     42.86% # Class of executed instruction
system.cpu2.op_class::SimdShiftAcc                  0      0.00%     42.86% # Class of executed instruction
system.cpu2.op_class::SimdDiv                       0      0.00%     42.86% # Class of executed instruction
system.cpu2.op_class::SimdSqrt                      0      0.00%     42.86% # Class of executed instruction
system.cpu2.op_class::SimdFloatAdd                  2      9.52%     52.38% # Class of executed instruction
system.cpu2.op_class::SimdFloatAlu                  0      0.00%     52.38% # Class of executed instruction
system.cpu2.op_class::SimdFloatCmp                  0      0.00%     52.38% # Class of executed instruction
system.cpu2.op_class::SimdFloatCvt                  0      0.00%     52.38% # Class of executed instruction
system.cpu2.op_class::SimdFloatDiv                  0      0.00%     52.38% # Class of executed instruction
system.cpu2.op_class::SimdFloatMisc                 0      0.00%     52.38% # Class of executed instruction
system.cpu2.op_class::SimdFloatMult                 0      0.00%     52.38% # Class of executed instruction
system.cpu2.op_class::SimdFloatMultAcc              0      0.00%     52.38% # Class of executed instruction
system.cpu2.op_class::SimdFloatSqrt                 0      0.00%     52.38% # Class of executed instruction
system.cpu2.op_class::SimdReduceAdd                 0      0.00%     52.38% # Class of executed instruction
system.cpu2.op_class::SimdReduceAlu                 0      0.00%     52.38% # Class of executed instruction
system.cpu2.op_class::SimdReduceCmp                 0      0.00%     52.38% # Class of executed instruction
system.cpu2.op_class::SimdFloatReduceAdd            0      0.00%     52.38% # Class of executed instruction
system.cpu2.op_class::SimdFloatReduceCmp            0      0.00%     52.38% # Class of executed instruction
system.cpu2.op_class::SimdAes                       0      0.00%     52.38% # Class of executed instruction
system.cpu2.op_class::SimdAesMix                    0      0.00%     52.38% # Class of executed instruction
system.cpu2.op_class::SimdSha1Hash                  0      0.00%     52.38% # Class of executed instruction
system.cpu2.op_class::SimdSha1Hash2                 0      0.00%     52.38% # Class of executed instruction
system.cpu2.op_class::SimdSha256Hash                0      0.00%     52.38% # Class of executed instruction
system.cpu2.op_class::SimdSha256Hash2               0      0.00%     52.38% # Class of executed instruction
system.cpu2.op_class::SimdShaSigma2                 0      0.00%     52.38% # Class of executed instruction
system.cpu2.op_class::SimdShaSigma3                 0      0.00%     52.38% # Class of executed instruction
system.cpu2.op_class::SimdPredAlu                   0      0.00%     52.38% # Class of executed instruction
system.cpu2.op_class::MemRead                       2      9.52%     61.90% # Class of executed instruction
system.cpu2.op_class::MemWrite                      0      0.00%     61.90% # Class of executed instruction
system.cpu2.op_class::FloatMemRead                  4     19.05%     80.95% # Class of executed instruction
system.cpu2.op_class::FloatMemWrite                 4     19.05%    100.00% # Class of executed instruction
system.cpu2.op_class::IprAccess                     0      0.00%    100.00% # Class of executed instruction
system.cpu2.op_class::InstPrefetch                  0      0.00%    100.00% # Class of executed instruction
system.cpu2.op_class::total                        21                       # Class of executed instruction
system.cpu2.workload.numSyscalls                    0                       # Number of system calls
system.cpu3.committedInsts                         12                       # Number of instructions committed
system.cpu3.committedOps                           22                       # Number of ops (including micro ops) committed
system.cpu3.idle_fraction                           0                       # Percentage of idle cycles
system.cpu3.l2bus.snoop_filter.hit_multi_requests            5                       # Number of requests hitting in the snoop filter with multiple (>1) holders of the requested data.
system.cpu3.l2bus.snoop_filter.hit_multi_snoops            0                       # Number of snoops hitting in the snoop filter with multiple (>1) holders of the requested data.
system.cpu3.l2bus.snoop_filter.hit_single_requests      1079260                       # Number of requests hitting in the snoop filter with a single holder of the requested data.
system.cpu3.l2bus.snoop_filter.hit_single_snoops         2799                       # Number of snoops hitting in the snoop filter with a single holder of the requested data.
system.cpu3.l2bus.snoop_filter.tot_requests      2159273                       # Total number of requests made to the snoop filter.
system.cpu3.l2bus.snoop_filter.tot_snoops         2799                       # Total number of snoops made to the snoop filter.
system.cpu3.mmucache.mmubus.snoop_filter.hit_multi_requests            0                       # Number of requests hitting in the snoop filter with multiple (>1) holders of the requested data.
system.cpu3.mmucache.mmubus.snoop_filter.hit_multi_snoops            0                       # Number of snoops hitting in the snoop filter with multiple (>1) holders of the requested data.
system.cpu3.mmucache.mmubus.snoop_filter.hit_single_requests            0                       # Number of requests hitting in the snoop filter with a single holder of the requested data.
system.cpu3.mmucache.mmubus.snoop_filter.hit_single_snoops            0                       # Number of snoops hitting in the snoop filter with a single holder of the requested data.
system.cpu3.mmucache.mmubus.snoop_filter.tot_requests            0                       # Total number of requests made to the snoop filter.
system.cpu3.mmucache.mmubus.snoop_filter.tot_snoops            0                       # Total number of snoops made to the snoop filter.
system.cpu3.not_idle_fraction                       1                       # Percentage of non-idle cycles
system.cpu3.numCycles                              30                       # number of cpu cycles simulated
system.cpu3.numWorkItemsCompleted                   0                       # number of work items this cpu completed
system.cpu3.numWorkItemsStarted                     0                       # number of work items this cpu started
system.cpu3.num_busy_cycles                        30                       # Number of busy cycles
system.cpu3.num_conditional_control_insts            0                       # number of instructions that are conditional controls
system.cpu3.num_fp_alu_accesses                    17                       # Number of float alu accesses
system.cpu3.num_fp_insts                           17                       # number of float instructions
system.cpu3.num_fp_register_reads                  36                       # number of times the floating registers were read
system.cpu3.num_fp_register_writes                 17                       # number of times the floating registers were written
system.cpu3.num_func_calls                          0                       # number of times a function call or return occured
system.cpu3.num_idle_cycles                         0                       # Number of idle cycles
system.cpu3.num_int_alu_accesses                   10                       # Number of integer alu accesses
system.cpu3.num_int_insts                          10                       # number of integer instructions
system.cpu3.num_int_register_reads                 20                       # number of times the integer registers were read
system.cpu3.num_int_register_writes                 5                       # number of times the integer registers were written
system.cpu3.num_load_insts                          5                       # Number of load instructions
system.cpu3.num_mem_refs                            5                       # number of memory refs
system.cpu3.num_store_insts                         0                       # Number of store instructions
system.cpu3.num_vec_alu_accesses                    0                       # Number of vector alu accesses
system.cpu3.num_vec_insts                           0                       # number of vector instructions
system.cpu3.num_vec_register_reads                  0                       # number of times the vector registers were read
system.cpu3.num_vec_register_writes                 0                       # number of times the vector registers were written
system.cpu3.op_class::No_OpClass                    0      0.00%      0.00% # Class of executed instruction
system.cpu3.op_class::IntAlu                        5     22.73%     22.73% # Class of executed instruction
system.cpu3.op_class::IntMult                       0      0.00%     22.73% # Class of executed instruction
system.cpu3.op_class::IntDiv                        0      0.00%     22.73% # Class of executed instruction
system.cpu3.op_class::FloatAdd                      0      0.00%     22.73% # Class of executed instruction
system.cpu3.op_class::FloatCmp                      0      0.00%     22.73% # Class of executed instruction
system.cpu3.op_class::FloatCvt                      0      0.00%     22.73% # Class of executed instruction
system.cpu3.op_class::FloatMult                     0      0.00%     22.73% # Class of executed instruction
system.cpu3.op_class::FloatMultAcc                  0      0.00%     22.73% # Class of executed instruction
system.cpu3.op_class::FloatDiv                      0      0.00%     22.73% # Class of executed instruction
system.cpu3.op_class::FloatMisc                     0      0.00%     22.73% # Class of executed instruction
system.cpu3.op_class::FloatSqrt                     0      0.00%     22.73% # Class of executed instruction
system.cpu3.op_class::SimdAdd                       0      0.00%     22.73% # Class of executed instruction
system.cpu3.op_class::SimdAddAcc                    0      0.00%     22.73% # Class of executed instruction
system.cpu3.op_class::SimdAlu                       0      0.00%     22.73% # Class of executed instruction
system.cpu3.op_class::SimdCmp                       0      0.00%     22.73% # Class of executed instruction
system.cpu3.op_class::SimdCvt                       0      0.00%     22.73% # Class of executed instruction
system.cpu3.op_class::SimdMisc                      0      0.00%     22.73% # Class of executed instruction
system.cpu3.op_class::SimdMult                      0      0.00%     22.73% # Class of executed instruction
system.cpu3.op_class::SimdMultAcc                   0      0.00%     22.73% # Class of executed instruction
system.cpu3.op_class::SimdShift                     0      0.00%     22.73% # Class of executed instruction
system.cpu3.op_class::SimdShiftAcc                  0      0.00%     22.73% # Class of executed instruction
system.cpu3.op_class::SimdDiv                       0      0.00%     22.73% # Class of executed instruction
system.cpu3.op_class::SimdSqrt                      0      0.00%     22.73% # Class of executed instruction
system.cpu3.op_class::SimdFloatAdd                  5     22.73%     45.45% # Class of executed instruction
system.cpu3.op_class::SimdFloatAlu                  0      0.00%     45.45% # Class of executed instruction
system.cpu3.op_class::SimdFloatCmp                  0      0.00%     45.45% # Class of executed instruction
system.cpu3.op_class::SimdFloatCvt                  0      0.00%     45.45% # Class of executed instruction
system.cpu3.op_class::SimdFloatDiv                  0      0.00%     45.45% # Class of executed instruction
system.cpu3.op_class::SimdFloatMisc                 0      0.00%     45.45% # Class of executed instruction
system.cpu3.op_class::SimdFloatMult                 7     31.82%     77.27% # Class of executed instruction
system.cpu3.op_class::SimdFloatMultAcc              0      0.00%     77.27% # Class of executed instruction
system.cpu3.op_class::SimdFloatSqrt                 0      0.00%     77.27% # Class of executed instruction
system.cpu3.op_class::SimdReduceAdd                 0      0.00%     77.27% # Class of executed instruction
system.cpu3.op_class::SimdReduceAlu                 0      0.00%     77.27% # Class of executed instruction
system.cpu3.op_class::SimdReduceCmp                 0      0.00%     77.27% # Class of executed instruction
system.cpu3.op_class::SimdFloatReduceAdd            0      0.00%     77.27% # Class of executed instruction
system.cpu3.op_class::SimdFloatReduceCmp            0      0.00%     77.27% # Class of executed instruction
system.cpu3.op_class::SimdAes                       0      0.00%     77.27% # Class of executed instruction
system.cpu3.op_class::SimdAesMix                    0      0.00%     77.27% # Class of executed instruction
system.cpu3.op_class::SimdSha1Hash                  0      0.00%     77.27% # Class of executed instruction
system.cpu3.op_class::SimdSha1Hash2                 0      0.00%     77.27% # Class of executed instruction
system.cpu3.op_class::SimdSha256Hash                0      0.00%     77.27% # Class of executed instruction
system.cpu3.op_class::SimdSha256Hash2               0      0.00%     77.27% # Class of executed instruction
system.cpu3.op_class::SimdShaSigma2                 0      0.00%     77.27% # Class of executed instruction
system.cpu3.op_class::SimdShaSigma3                 0      0.00%     77.27% # Class of executed instruction
system.cpu3.op_class::SimdPredAlu                   0      0.00%     77.27% # Class of executed instruction
system.cpu3.op_class::MemRead                       0      0.00%     77.27% # Class of executed instruction
system.cpu3.op_class::MemWrite                      0      0.00%     77.27% # Class of executed instruction
system.cpu3.op_class::FloatMemRead                  5     22.73%    100.00% # Class of executed instruction
system.cpu3.op_class::FloatMemWrite                 0      0.00%    100.00% # Class of executed instruction
system.cpu3.op_class::IprAccess                     0      0.00%    100.00% # Class of executed instruction
system.cpu3.op_class::InstPrefetch                  0      0.00%    100.00% # Class of executed instruction
system.cpu3.op_class::total                        22                       # Class of executed instruction
system.cpu3.workload.numSyscalls                    0                       # Number of system calls
system.l3bus.snoop_filter.hit_multi_requests            0                       # Number of requests hitting in the snoop filter with multiple (>1) holders of the requested data.
system.l3bus.snoop_filter.hit_multi_snoops            0                       # Number of snoops hitting in the snoop filter with multiple (>1) holders of the requested data.
system.l3bus.snoop_filter.hit_single_requests      2092988                       # Number of requests hitting in the snoop filter with a single holder of the requested data.
system.l3bus.snoop_filter.hit_single_snoops            0                       # Number of snoops hitting in the snoop filter with a single holder of the requested data.
system.l3bus.snoop_filter.tot_requests        4203315                       # Total number of requests made to the snoop filter.
system.l3bus.snoop_filter.tot_snoops                0                       # Total number of snoops made to the snoop filter.
system.membus.snoop_filter.hit_multi_requests            0                       # Number of requests hitting in the snoop filter with multiple (>1) holders of the requested data.
system.membus.snoop_filter.hit_multi_snoops            0                       # Number of snoops hitting in the snoop filter with multiple (>1) holders of the requested data.
system.membus.snoop_filter.hit_single_requests      1088092                       # Number of requests hitting in the snoop filter with a single holder of the requested data.
system.membus.snoop_filter.hit_single_snoops            0                       # Number of snoops hitting in the snoop filter with a single holder of the requested data.
system.membus.snoop_filter.tot_requests       2256262                       # Total number of requests made to the snoop filter.
system.membus.snoop_filter.tot_snoops               0                       # Total number of snoops made to the snoop filter.
system.switch_cpus0.cc_regfile_reads        113026382                       # number of cc regfile reads
system.switch_cpus0.cc_regfile_writes        99854405                       # number of cc regfile writes
system.switch_cpus0.committedInsts          124607488                       # Number of Instructions Simulated
system.switch_cpus0.committedOps            201765507                       # Number of Ops (including micro ops) Simulated
system.switch_cpus0.cpi                      0.741534                       # CPI: Cycles Per Instruction
system.switch_cpus0.cpi_total                0.741534                       # CPI: Total CPI of All Threads
system.switch_cpus0.fp_regfile_reads           125534                       # number of floating regfile reads
system.switch_cpus0.fp_regfile_writes          125641                       # number of floating regfile writes
system.switch_cpus0.idleCycles                 152567                       # Total number of cycles that the CPU has spent unscheduled due to idling
system.switch_cpus0.iew.branchMispredicts      1666389                       # Number of branch mispredicts detected at execute
system.switch_cpus0.iew.exec_branches        22245526                       # Number of branches executed
system.switch_cpus0.iew.exec_nop                    0                       # number of nop insts executed
system.switch_cpus0.iew.exec_rate            2.746627                       # Inst execution rate
system.switch_cpus0.iew.exec_refs            57733268                       # number of memory reference insts executed
system.switch_cpus0.iew.exec_stores          17785416                       # Number of stores executed
system.switch_cpus0.iew.exec_swp                    0                       # number of swp insts executed
system.switch_cpus0.iew.iewBlockCycles       12971023                       # Number of cycles IEW is blocking
system.switch_cpus0.iew.iewDispLoadInsts     46179427                       # Number of dispatched load instructions
system.switch_cpus0.iew.iewDispNonSpecInsts            0                       # Number of dispatched non-speculative instructions
system.switch_cpus0.iew.iewDispSquashedInsts        48827                       # Number of squashed instructions skipped by dispatch
system.switch_cpus0.iew.iewDispStoreInsts     21428028                       # Number of dispatched store instructions
system.switch_cpus0.iew.iewDispatchedInsts    298825946                       # Number of instructions dispatched to IQ
system.switch_cpus0.iew.iewExecLoadInsts     39947852                       # Number of load instructions executed
system.switch_cpus0.iew.iewExecSquashedInsts      3372241                       # Number of squashed instructions skipped in execute
system.switch_cpus0.iew.iewExecutedInsts    253790326                       # Number of executed instructions
system.switch_cpus0.iew.iewIQFullEvents         26260                       # Number of times the IQ has become full, causing a stall
system.switch_cpus0.iew.iewIdleCycles               0                       # Number of cycles IEW is idle
system.switch_cpus0.iew.iewLSQFullEvents        54043                       # Number of times the LSQ has become full, causing a stall
system.switch_cpus0.iew.iewSquashCycles       1508851                       # Number of cycles IEW is squashing
system.switch_cpus0.iew.iewUnblockCycles        88746                       # Number of cycles IEW is unblocking
system.switch_cpus0.iew.memOrderViolationEvents        54682                       # Number of memory order violations
system.switch_cpus0.iew.predictedNotTakenIncorrect       820422                       # Number of branches that were predicted not taken incorrectly
system.switch_cpus0.iew.predictedTakenIncorrect       845967                       # Number of branches that were predicted taken incorrectly
system.switch_cpus0.iew.wb_consumers        328675824                       # num instructions consuming a value
system.switch_cpus0.iew.wb_count            252661690                       # cumulative count of insts written-back
system.switch_cpus0.iew.wb_fanout            0.584215                       # average fanout of values written-back
system.switch_cpus0.iew.wb_producers        192017460                       # num instructions producing a value
system.switch_cpus0.iew.wb_rate              2.734412                       # insts written-back per cycle
system.switch_cpus0.iew.wb_sent             253461049                       # cumulative count of insts sent to commit
system.switch_cpus0.int_regfile_reads       391352979                       # number of integer regfile reads
system.switch_cpus0.int_regfile_writes      215072088                       # number of integer regfile writes
system.switch_cpus0.ipc                      1.348555                       # IPC: Instructions Per Cycle
system.switch_cpus0.ipc_total                1.348555                       # IPC: Total IPC of All Threads
system.switch_cpus0.iq.FU_type_0::No_OpClass       621131      0.24%      0.24% # Type of FU issued
system.switch_cpus0.iq.FU_type_0::IntAlu    195392782     75.98%     76.22% # Type of FU issued
system.switch_cpus0.iq.FU_type_0::IntMult      1709176      0.66%     76.89% # Type of FU issued
system.switch_cpus0.iq.FU_type_0::IntDiv       430729      0.17%     77.05% # Type of FU issued
system.switch_cpus0.iq.FU_type_0::FloatAdd            0      0.00%     77.05% # Type of FU issued
system.switch_cpus0.iq.FU_type_0::FloatCmp            0      0.00%     77.05% # Type of FU issued
system.switch_cpus0.iq.FU_type_0::FloatCvt            0      0.00%     77.05% # Type of FU issued
system.switch_cpus0.iq.FU_type_0::FloatMult            0      0.00%     77.05% # Type of FU issued
system.switch_cpus0.iq.FU_type_0::FloatMultAcc            0      0.00%     77.05% # Type of FU issued
system.switch_cpus0.iq.FU_type_0::FloatDiv            0      0.00%     77.05% # Type of FU issued
system.switch_cpus0.iq.FU_type_0::FloatMisc            0      0.00%     77.05% # Type of FU issued
system.switch_cpus0.iq.FU_type_0::FloatSqrt            0      0.00%     77.05% # Type of FU issued
system.switch_cpus0.iq.FU_type_0::SimdAdd            0      0.00%     77.05% # Type of FU issued
system.switch_cpus0.iq.FU_type_0::SimdAddAcc            0      0.00%     77.05% # Type of FU issued
system.switch_cpus0.iq.FU_type_0::SimdAlu            0      0.00%     77.05% # Type of FU issued
system.switch_cpus0.iq.FU_type_0::SimdCmp            0      0.00%     77.05% # Type of FU issued
system.switch_cpus0.iq.FU_type_0::SimdCvt            0      0.00%     77.05% # Type of FU issued
system.switch_cpus0.iq.FU_type_0::SimdMisc            0      0.00%     77.05% # Type of FU issued
system.switch_cpus0.iq.FU_type_0::SimdMult            0      0.00%     77.05% # Type of FU issued
system.switch_cpus0.iq.FU_type_0::SimdMultAcc            0      0.00%     77.05% # Type of FU issued
system.switch_cpus0.iq.FU_type_0::SimdShift            0      0.00%     77.05% # Type of FU issued
system.switch_cpus0.iq.FU_type_0::SimdShiftAcc            0      0.00%     77.05% # Type of FU issued
system.switch_cpus0.iq.FU_type_0::SimdDiv            0      0.00%     77.05% # Type of FU issued
system.switch_cpus0.iq.FU_type_0::SimdSqrt            0      0.00%     77.05% # Type of FU issued
system.switch_cpus0.iq.FU_type_0::SimdFloatAdd            0      0.00%     77.05% # Type of FU issued
system.switch_cpus0.iq.FU_type_0::SimdFloatAlu            0      0.00%     77.05% # Type of FU issued
system.switch_cpus0.iq.FU_type_0::SimdFloatCmp            0      0.00%     77.05% # Type of FU issued
system.switch_cpus0.iq.FU_type_0::SimdFloatCvt            0      0.00%     77.05% # Type of FU issued
system.switch_cpus0.iq.FU_type_0::SimdFloatDiv            0      0.00%     77.05% # Type of FU issued
system.switch_cpus0.iq.FU_type_0::SimdFloatMisc            0      0.00%     77.05% # Type of FU issued
system.switch_cpus0.iq.FU_type_0::SimdFloatMult            0      0.00%     77.05% # Type of FU issued
system.switch_cpus0.iq.FU_type_0::SimdFloatMultAcc            0      0.00%     77.05% # Type of FU issued
system.switch_cpus0.iq.FU_type_0::SimdFloatSqrt            0      0.00%     77.05% # Type of FU issued
system.switch_cpus0.iq.FU_type_0::SimdReduceAdd            0      0.00%     77.05% # Type of FU issued
system.switch_cpus0.iq.FU_type_0::SimdReduceAlu            0      0.00%     77.05% # Type of FU issued
system.switch_cpus0.iq.FU_type_0::SimdReduceCmp            0      0.00%     77.05% # Type of FU issued
system.switch_cpus0.iq.FU_type_0::SimdFloatReduceAdd            0      0.00%     77.05% # Type of FU issued
system.switch_cpus0.iq.FU_type_0::SimdFloatReduceCmp            0      0.00%     77.05% # Type of FU issued
system.switch_cpus0.iq.FU_type_0::SimdAes            0      0.00%     77.05% # Type of FU issued
system.switch_cpus0.iq.FU_type_0::SimdAesMix            0      0.00%     77.05% # Type of FU issued
system.switch_cpus0.iq.FU_type_0::SimdSha1Hash            0      0.00%     77.05% # Type of FU issued
system.switch_cpus0.iq.FU_type_0::SimdSha1Hash2            0      0.00%     77.05% # Type of FU issued
system.switch_cpus0.iq.FU_type_0::SimdSha256Hash            0      0.00%     77.05% # Type of FU issued
system.switch_cpus0.iq.FU_type_0::SimdSha256Hash2            0      0.00%     77.05% # Type of FU issued
system.switch_cpus0.iq.FU_type_0::SimdShaSigma2            0      0.00%     77.05% # Type of FU issued
system.switch_cpus0.iq.FU_type_0::SimdShaSigma3            0      0.00%     77.05% # Type of FU issued
system.switch_cpus0.iq.FU_type_0::SimdPredAlu            0      0.00%     77.05% # Type of FU issued
system.switch_cpus0.iq.FU_type_0::MemRead     40672417     15.82%     92.87% # Type of FU issued
system.switch_cpus0.iq.FU_type_0::MemWrite     18085145      7.03%     99.90% # Type of FU issued
system.switch_cpus0.iq.FU_type_0::FloatMemRead       125640      0.05%     99.95% # Type of FU issued
system.switch_cpus0.iq.FU_type_0::FloatMemWrite       125555      0.05%    100.00% # Type of FU issued
system.switch_cpus0.iq.FU_type_0::IprAccess            0      0.00%    100.00% # Type of FU issued
system.switch_cpus0.iq.FU_type_0::InstPrefetch            0      0.00%    100.00% # Type of FU issued
system.switch_cpus0.iq.FU_type_0::total     257162575                       # Type of FU issued
system.switch_cpus0.iq.fp_alu_accesses         251196                       # Number of floating point alu accesses
system.switch_cpus0.iq.fp_inst_queue_reads       502391                       # Number of floating instruction queue reads
system.switch_cpus0.iq.fp_inst_queue_wakeup_accesses       251089                       # Number of floating instruction queue wakeup accesses
system.switch_cpus0.iq.fp_inst_queue_writes       414842                       # Number of floating instruction queue writes
system.switch_cpus0.iq.fu_busy_cnt            5513312                       # FU busy when requested
system.switch_cpus0.iq.fu_busy_rate          0.021439                       # FU busy rate (busy events/executed inst)
system.switch_cpus0.iq.fu_full::No_OpClass            0      0.00%      0.00% # attempts to use FU when none available
system.switch_cpus0.iq.fu_full::IntAlu        3939841     71.46%     71.46% # attempts to use FU when none available
system.switch_cpus0.iq.fu_full::IntMult             0      0.00%     71.46% # attempts to use FU when none available
system.switch_cpus0.iq.fu_full::IntDiv              0      0.00%     71.46% # attempts to use FU when none available
system.switch_cpus0.iq.fu_full::FloatAdd            0      0.00%     71.46% # attempts to use FU when none available
system.switch_cpus0.iq.fu_full::FloatCmp            0      0.00%     71.46% # attempts to use FU when none available
system.switch_cpus0.iq.fu_full::FloatCvt            0      0.00%     71.46% # attempts to use FU when none available
system.switch_cpus0.iq.fu_full::FloatMult            0      0.00%     71.46% # attempts to use FU when none available
system.switch_cpus0.iq.fu_full::FloatMultAcc            0      0.00%     71.46% # attempts to use FU when none available
system.switch_cpus0.iq.fu_full::FloatDiv            0      0.00%     71.46% # attempts to use FU when none available
system.switch_cpus0.iq.fu_full::FloatMisc            0      0.00%     71.46% # attempts to use FU when none available
system.switch_cpus0.iq.fu_full::FloatSqrt            0      0.00%     71.46% # attempts to use FU when none available
system.switch_cpus0.iq.fu_full::SimdAdd             0      0.00%     71.46% # attempts to use FU when none available
system.switch_cpus0.iq.fu_full::SimdAddAcc            0      0.00%     71.46% # attempts to use FU when none available
system.switch_cpus0.iq.fu_full::SimdAlu             0      0.00%     71.46% # attempts to use FU when none available
system.switch_cpus0.iq.fu_full::SimdCmp             0      0.00%     71.46% # attempts to use FU when none available
system.switch_cpus0.iq.fu_full::SimdCvt             0      0.00%     71.46% # attempts to use FU when none available
system.switch_cpus0.iq.fu_full::SimdMisc            0      0.00%     71.46% # attempts to use FU when none available
system.switch_cpus0.iq.fu_full::SimdMult            0      0.00%     71.46% # attempts to use FU when none available
system.switch_cpus0.iq.fu_full::SimdMultAcc            0      0.00%     71.46% # attempts to use FU when none available
system.switch_cpus0.iq.fu_full::SimdShift            0      0.00%     71.46% # attempts to use FU when none available
system.switch_cpus0.iq.fu_full::SimdShiftAcc            0      0.00%     71.46% # attempts to use FU when none available
system.switch_cpus0.iq.fu_full::SimdDiv             0      0.00%     71.46% # attempts to use FU when none available
system.switch_cpus0.iq.fu_full::SimdSqrt            0      0.00%     71.46% # attempts to use FU when none available
system.switch_cpus0.iq.fu_full::SimdFloatAdd            0      0.00%     71.46% # attempts to use FU when none available
system.switch_cpus0.iq.fu_full::SimdFloatAlu            0      0.00%     71.46% # attempts to use FU when none available
system.switch_cpus0.iq.fu_full::SimdFloatCmp            0      0.00%     71.46% # attempts to use FU when none available
system.switch_cpus0.iq.fu_full::SimdFloatCvt            0      0.00%     71.46% # attempts to use FU when none available
system.switch_cpus0.iq.fu_full::SimdFloatDiv            0      0.00%     71.46% # attempts to use FU when none available
system.switch_cpus0.iq.fu_full::SimdFloatMisc            0      0.00%     71.46% # attempts to use FU when none available
system.switch_cpus0.iq.fu_full::SimdFloatMult            0      0.00%     71.46% # attempts to use FU when none available
system.switch_cpus0.iq.fu_full::SimdFloatMultAcc            0      0.00%     71.46% # attempts to use FU when none available
system.switch_cpus0.iq.fu_full::SimdFloatSqrt            0      0.00%     71.46% # attempts to use FU when none available
system.switch_cpus0.iq.fu_full::SimdReduceAdd            0      0.00%     71.46% # attempts to use FU when none available
system.switch_cpus0.iq.fu_full::SimdReduceAlu            0      0.00%     71.46% # attempts to use FU when none available
system.switch_cpus0.iq.fu_full::SimdReduceCmp            0      0.00%     71.46% # attempts to use FU when none available
system.switch_cpus0.iq.fu_full::SimdFloatReduceAdd            0      0.00%     71.46% # attempts to use FU when none available
system.switch_cpus0.iq.fu_full::SimdFloatReduceCmp            0      0.00%     71.46% # attempts to use FU when none available
system.switch_cpus0.iq.fu_full::SimdAes             0      0.00%     71.46% # attempts to use FU when none available
system.switch_cpus0.iq.fu_full::SimdAesMix            0      0.00%     71.46% # attempts to use FU when none available
system.switch_cpus0.iq.fu_full::SimdSha1Hash            0      0.00%     71.46% # attempts to use FU when none available
system.switch_cpus0.iq.fu_full::SimdSha1Hash2            0      0.00%     71.46% # attempts to use FU when none available
system.switch_cpus0.iq.fu_full::SimdSha256Hash            0      0.00%     71.46% # attempts to use FU when none available
system.switch_cpus0.iq.fu_full::SimdSha256Hash2            0      0.00%     71.46% # attempts to use FU when none available
system.switch_cpus0.iq.fu_full::SimdShaSigma2            0      0.00%     71.46% # attempts to use FU when none available
system.switch_cpus0.iq.fu_full::SimdShaSigma3            0      0.00%     71.46% # attempts to use FU when none available
system.switch_cpus0.iq.fu_full::SimdPredAlu            0      0.00%     71.46% # attempts to use FU when none available
system.switch_cpus0.iq.fu_full::MemRead       1142331     20.72%     92.18% # attempts to use FU when none available
system.switch_cpus0.iq.fu_full::MemWrite       431139      7.82%    100.00% # attempts to use FU when none available
system.switch_cpus0.iq.fu_full::FloatMemRead            1      0.00%    100.00% # attempts to use FU when none available
system.switch_cpus0.iq.fu_full::FloatMemWrite            0      0.00%    100.00% # attempts to use FU when none available
system.switch_cpus0.iq.fu_full::IprAccess            0      0.00%    100.00% # attempts to use FU when none available
system.switch_cpus0.iq.fu_full::InstPrefetch            0      0.00%    100.00% # attempts to use FU when none available
system.switch_cpus0.iq.int_alu_accesses     261803560                       # Number of integer alu accesses
system.switch_cpus0.iq.int_inst_queue_reads    612290205                       # Number of integer instruction queue reads
system.switch_cpus0.iq.int_inst_queue_wakeup_accesses    252410601                       # Number of integer instruction queue wakeup accesses
system.switch_cpus0.iq.int_inst_queue_writes    395524167                       # Number of integer instruction queue writes
system.switch_cpus0.iq.iqInstsAdded         298825946                       # Number of instructions added to the IQ (excludes non-spec)
system.switch_cpus0.iq.iqInstsIssued        257162575                       # Number of instructions issued
system.switch_cpus0.iq.iqSquashedInstsExamined     97060300                       # Number of squashed instructions iterated over during squash; mainly for profiling
system.switch_cpus0.iq.iqSquashedInstsIssued       705980                       # Number of squashed instructions issued
system.switch_cpus0.iq.iqSquashedOperandsExamined    150294211                       # Number of squashed operands that are examined and possibly removed from graph
system.switch_cpus0.iq.issued_per_cycle::samples     92248162                       # Number of insts issued each cycle
system.switch_cpus0.iq.issued_per_cycle::mean     2.787726                       # Number of insts issued each cycle
system.switch_cpus0.iq.issued_per_cycle::stdev     2.562411                       # Number of insts issued each cycle
system.switch_cpus0.iq.issued_per_cycle::underflows            0      0.00%      0.00% # Number of insts issued each cycle
system.switch_cpus0.iq.issued_per_cycle::0     28843973     31.27%     31.27% # Number of insts issued each cycle
system.switch_cpus0.iq.issued_per_cycle::1      7998789      8.67%     39.94% # Number of insts issued each cycle
system.switch_cpus0.iq.issued_per_cycle::2      9950933     10.79%     50.73% # Number of insts issued each cycle
system.switch_cpus0.iq.issued_per_cycle::3     10091294     10.94%     61.67% # Number of insts issued each cycle
system.switch_cpus0.iq.issued_per_cycle::4      9590129     10.40%     72.06% # Number of insts issued each cycle
system.switch_cpus0.iq.issued_per_cycle::5      8074994      8.75%     80.81% # Number of insts issued each cycle
system.switch_cpus0.iq.issued_per_cycle::6      7978419      8.65%     89.46% # Number of insts issued each cycle
system.switch_cpus0.iq.issued_per_cycle::7      5375010      5.83%     95.29% # Number of insts issued each cycle
system.switch_cpus0.iq.issued_per_cycle::8      4344621      4.71%    100.00% # Number of insts issued each cycle
system.switch_cpus0.iq.issued_per_cycle::overflows            0      0.00%    100.00% # Number of insts issued each cycle
system.switch_cpus0.iq.issued_per_cycle::min_value            0                       # Number of insts issued each cycle
system.switch_cpus0.iq.issued_per_cycle::max_value            8                       # Number of insts issued each cycle
system.switch_cpus0.iq.issued_per_cycle::total     92248162                       # Number of insts issued each cycle
system.switch_cpus0.iq.rate                  2.783123                       # Inst issue rate
system.switch_cpus0.iq.vec_alu_accesses             0                       # Number of vector alu accesses
system.switch_cpus0.iq.vec_inst_queue_reads            0                       # Number of vector instruction queue reads
system.switch_cpus0.iq.vec_inst_queue_wakeup_accesses            0                       # Number of vector instruction queue wakeup accesses
system.switch_cpus0.iq.vec_inst_queue_writes            0                       # Number of vector instruction queue writes
system.switch_cpus0.memDep0.conflictingLoads      7757715                       # Number of conflicting loads.
system.switch_cpus0.memDep0.conflictingStores      3513441                       # Number of conflicting stores.
system.switch_cpus0.memDep0.insertedLoads     46179427                       # Number of loads inserted to the mem dependence unit.
system.switch_cpus0.memDep0.insertedStores     21428028                       # Number of stores inserted to the mem dependence unit.
system.switch_cpus0.misc_regfile_reads      110000942                       # number of misc regfile reads
system.switch_cpus0.misc_regfile_writes             1                       # number of misc regfile writes
system.switch_cpus0.numCycles                92400729                       # number of cpu cycles simulated
system.switch_cpus0.numWorkItemsCompleted            0                       # number of work items this cpu completed
system.switch_cpus0.numWorkItemsStarted             0                       # number of work items this cpu started
system.switch_cpus0.timesIdled                   1850                       # Number of times that the entire CPU went into an idle state and unscheduled itself
system.switch_cpus1.cc_regfile_reads         93351295                       # number of cc regfile reads
system.switch_cpus1.cc_regfile_writes        38022049                       # number of cc regfile writes
system.switch_cpus1.committedInsts           61656316                       # Number of Instructions Simulated
system.switch_cpus1.committedOps            106194089                       # Number of Ops (including micro ops) Simulated
system.switch_cpus1.cpi                      1.498642                       # CPI: Cycles Per Instruction
system.switch_cpus1.cpi_total                1.498642                       # CPI: Total CPI of All Threads
system.switch_cpus1.fp_regfile_writes              56                       # number of floating regfile writes
system.switch_cpus1.idleCycles                  11693                       # Total number of cycles that the CPU has spent unscheduled due to idling
system.switch_cpus1.iew.branchMispredicts      1447594                       # Number of branch mispredicts detected at execute
system.switch_cpus1.iew.exec_branches        24658598                       # Number of branches executed
system.switch_cpus1.iew.exec_nop                    0                       # number of nop insts executed
system.switch_cpus1.iew.exec_rate            1.834429                       # Inst execution rate
system.switch_cpus1.iew.exec_refs            42145538                       # number of memory reference insts executed
system.switch_cpus1.iew.exec_stores           8791109                       # Number of stores executed
system.switch_cpus1.iew.exec_swp                    0                       # number of swp insts executed
system.switch_cpus1.iew.iewBlockCycles       35968102                       # Number of cycles IEW is blocking
system.switch_cpus1.iew.iewDispLoadInsts     38284862                       # Number of dispatched load instructions
system.switch_cpus1.iew.iewDispNonSpecInsts            0                       # Number of dispatched non-speculative instructions
system.switch_cpus1.iew.iewDispSquashedInsts        55270                       # Number of squashed instructions skipped by dispatch
system.switch_cpus1.iew.iewDispStoreInsts      9913303                       # Number of dispatched store instructions
system.switch_cpus1.iew.iewDispatchedInsts    193300568                       # Number of instructions dispatched to IQ
system.switch_cpus1.iew.iewExecLoadInsts     33354429                       # Number of load instructions executed
system.switch_cpus1.iew.iewExecSquashedInsts      4359490                       # Number of squashed instructions skipped in execute
system.switch_cpus1.iew.iewExecutedInsts    169502535                       # Number of executed instructions
system.switch_cpus1.iew.iewIQFullEvents        168318                       # Number of times the IQ has become full, causing a stall
system.switch_cpus1.iew.iewIdleCycles               0                       # Number of cycles IEW is idle
system.switch_cpus1.iew.iewLSQFullEvents      3346175                       # Number of times the LSQ has become full, causing a stall
system.switch_cpus1.iew.iewSquashCycles       1400844                       # Number of cycles IEW is squashing
system.switch_cpus1.iew.iewUnblockCycles      3662502                       # Number of cycles IEW is unblocking
system.switch_cpus1.iew.memOrderViolationEvents         3980                       # Number of memory order violations
system.switch_cpus1.iew.predictedNotTakenIncorrect       788860                       # Number of branches that were predicted not taken incorrectly
system.switch_cpus1.iew.predictedTakenIncorrect       658734                       # Number of branches that were predicted taken incorrectly
system.switch_cpus1.iew.wb_consumers        177094909                       # num instructions consuming a value
system.switch_cpus1.iew.wb_count            167458679                       # cumulative count of insts written-back
system.switch_cpus1.iew.wb_fanout            0.655352                       # average fanout of values written-back
system.switch_cpus1.iew.wb_producers        116059446                       # num instructions producing a value
system.switch_cpus1.iew.wb_rate              1.812309                       # insts written-back per cycle
system.switch_cpus1.iew.wb_sent             168604845                       # cumulative count of insts sent to commit
system.switch_cpus1.int_regfile_reads       242875994                       # number of integer regfile reads
system.switch_cpus1.int_regfile_writes      136130397                       # number of integer regfile writes
system.switch_cpus1.ipc                      0.667271                       # IPC: Instructions Per Cycle
system.switch_cpus1.ipc_total                0.667271                       # IPC: Total IPC of All Threads
system.switch_cpus1.iq.FU_type_0::No_OpClass        71516      0.04%      0.04% # Type of FU issued
system.switch_cpus1.iq.FU_type_0::IntAlu    129196938     74.31%     74.35% # Type of FU issued
system.switch_cpus1.iq.FU_type_0::IntMult       175969      0.10%     74.45% # Type of FU issued
system.switch_cpus1.iq.FU_type_0::IntDiv       444532      0.26%     74.71% # Type of FU issued
system.switch_cpus1.iq.FU_type_0::FloatAdd            0      0.00%     74.71% # Type of FU issued
system.switch_cpus1.iq.FU_type_0::FloatCmp            0      0.00%     74.71% # Type of FU issued
system.switch_cpus1.iq.FU_type_0::FloatCvt            0      0.00%     74.71% # Type of FU issued
system.switch_cpus1.iq.FU_type_0::FloatMult            0      0.00%     74.71% # Type of FU issued
system.switch_cpus1.iq.FU_type_0::FloatMultAcc            0      0.00%     74.71% # Type of FU issued
system.switch_cpus1.iq.FU_type_0::FloatDiv            0      0.00%     74.71% # Type of FU issued
system.switch_cpus1.iq.FU_type_0::FloatMisc            0      0.00%     74.71% # Type of FU issued
system.switch_cpus1.iq.FU_type_0::FloatSqrt            0      0.00%     74.71% # Type of FU issued
system.switch_cpus1.iq.FU_type_0::SimdAdd            0      0.00%     74.71% # Type of FU issued
system.switch_cpus1.iq.FU_type_0::SimdAddAcc            0      0.00%     74.71% # Type of FU issued
system.switch_cpus1.iq.FU_type_0::SimdAlu            0      0.00%     74.71% # Type of FU issued
system.switch_cpus1.iq.FU_type_0::SimdCmp            0      0.00%     74.71% # Type of FU issued
system.switch_cpus1.iq.FU_type_0::SimdCvt            0      0.00%     74.71% # Type of FU issued
system.switch_cpus1.iq.FU_type_0::SimdMisc            0      0.00%     74.71% # Type of FU issued
system.switch_cpus1.iq.FU_type_0::SimdMult            0      0.00%     74.71% # Type of FU issued
system.switch_cpus1.iq.FU_type_0::SimdMultAcc            0      0.00%     74.71% # Type of FU issued
system.switch_cpus1.iq.FU_type_0::SimdShift            0      0.00%     74.71% # Type of FU issued
system.switch_cpus1.iq.FU_type_0::SimdShiftAcc            0      0.00%     74.71% # Type of FU issued
system.switch_cpus1.iq.FU_type_0::SimdDiv            0      0.00%     74.71% # Type of FU issued
system.switch_cpus1.iq.FU_type_0::SimdSqrt            0      0.00%     74.71% # Type of FU issued
system.switch_cpus1.iq.FU_type_0::SimdFloatAdd            0      0.00%     74.71% # Type of FU issued
system.switch_cpus1.iq.FU_type_0::SimdFloatAlu            0      0.00%     74.71% # Type of FU issued
system.switch_cpus1.iq.FU_type_0::SimdFloatCmp            0      0.00%     74.71% # Type of FU issued
system.switch_cpus1.iq.FU_type_0::SimdFloatCvt            0      0.00%     74.71% # Type of FU issued
system.switch_cpus1.iq.FU_type_0::SimdFloatDiv            0      0.00%     74.71% # Type of FU issued
system.switch_cpus1.iq.FU_type_0::SimdFloatMisc            0      0.00%     74.71% # Type of FU issued
system.switch_cpus1.iq.FU_type_0::SimdFloatMult            0      0.00%     74.71% # Type of FU issued
system.switch_cpus1.iq.FU_type_0::SimdFloatMultAcc            0      0.00%     74.71% # Type of FU issued
system.switch_cpus1.iq.FU_type_0::SimdFloatSqrt            0      0.00%     74.71% # Type of FU issued
system.switch_cpus1.iq.FU_type_0::SimdReduceAdd            0      0.00%     74.71% # Type of FU issued
system.switch_cpus1.iq.FU_type_0::SimdReduceAlu            0      0.00%     74.71% # Type of FU issued
system.switch_cpus1.iq.FU_type_0::SimdReduceCmp            0      0.00%     74.71% # Type of FU issued
system.switch_cpus1.iq.FU_type_0::SimdFloatReduceAdd            0      0.00%     74.71% # Type of FU issued
system.switch_cpus1.iq.FU_type_0::SimdFloatReduceCmp            0      0.00%     74.71% # Type of FU issued
system.switch_cpus1.iq.FU_type_0::SimdAes            0      0.00%     74.71% # Type of FU issued
system.switch_cpus1.iq.FU_type_0::SimdAesMix            0      0.00%     74.71% # Type of FU issued
system.switch_cpus1.iq.FU_type_0::SimdSha1Hash            0      0.00%     74.71% # Type of FU issued
system.switch_cpus1.iq.FU_type_0::SimdSha1Hash2            0      0.00%     74.71% # Type of FU issued
system.switch_cpus1.iq.FU_type_0::SimdSha256Hash            0      0.00%     74.71% # Type of FU issued
system.switch_cpus1.iq.FU_type_0::SimdSha256Hash2            0      0.00%     74.71% # Type of FU issued
system.switch_cpus1.iq.FU_type_0::SimdShaSigma2            0      0.00%     74.71% # Type of FU issued
system.switch_cpus1.iq.FU_type_0::SimdShaSigma3            0      0.00%     74.71% # Type of FU issued
[...]
system.switch_cpus3.commit.numCommittedDist::stdev     2.349675                       # Number of insts commited each cycle
system.switch_cpus3.commit.numCommittedDist::underflows            0      0.00%      0.00% # Number of insts commited each cycle
system.switch_cpus3.commit.numCommittedDist::0     77700068     84.17%     84.17% # Number of insts commited each cycle
system.switch_cpus3.commit.numCommittedDist::1      2018528      2.19%     86.35% # Number of insts commited each cycle
system.switch_cpus3.commit.numCommittedDist::2      1607375      1.74%     88.10% # Number of insts commited each cycle
system.switch_cpus3.commit.numCommittedDist::3      1181162      1.28%     89.37% # Number of insts commited each cycle
system.switch_cpus3.commit.numCommittedDist::4       607576      0.66%     90.03% # Number of insts commited each cycle
system.switch_cpus3.commit.numCommittedDist::5       662543      0.72%     90.75% # Number of insts commited each cycle
system.switch_cpus3.commit.numCommittedDist::6       235169      0.25%     91.01% # Number of insts commited each cycle
system.switch_cpus3.commit.numCommittedDist::7       160083      0.17%     91.18% # Number of insts commited each cycle
system.switch_cpus3.commit.numCommittedDist::8      8143683      8.82%    100.00% # Number of insts commited each cycle
system.switch_cpus3.commit.numCommittedDist::overflows            0      0.00%    100.00% # Number of insts commited each cycle
system.switch_cpus3.commit.numCommittedDist::min_value            0                       # Number of insts commited each cycle
system.switch_cpus3.commit.numCommittedDist::max_value            8                       # Number of insts commited each cycle
system.switch_cpus3.commit.numCommittedDist::total     92316187                       # Number of insts commited each cycle
system.switch_cpus3.commit.instsCommitted     58418797                       # Number of instructions committed
system.switch_cpus3.commit.opsCommitted      82200842                       # Number of ops (including micro ops) committed
system.switch_cpus3.commit.memRefs           21620447                       # Number of memory references committed
system.switch_cpus3.commit.loads             17291670                       # Number of loads committed
system.switch_cpus3.commit.amos                     0                       # Number of atomic instructions committed
system.switch_cpus3.commit.membars                  0                       # Number of memory barriers committed
system.switch_cpus3.commit.branches           3365186                       # Number of branches committed
system.switch_cpus3.commit.vector                   0                       # Number of committed Vector instructions.
system.switch_cpus3.commit.floating          52982156                       # Number of committed floating point instructions.
system.switch_cpus3.commit.integer           49548704                       # Number of committed integer instructions.
system.switch_cpus3.commit.functionCalls          131                       # Number of function calls committed.
system.switch_cpus3.commit.committedInstType_0::No_OpClass         2066      0.00%      0.00% # Class of committed instruction
system.switch_cpus3.commit.committedInstType_0::IntAlu     31584665     38.42%     38.43% # Class of committed instruction
system.switch_cpus3.commit.committedInstType_0::IntMult         3480      0.00%     38.43% # Class of committed instruction
system.switch_cpus3.commit.committedInstType_0::IntDiv            7      0.00%     38.43% # Class of committed instruction
system.switch_cpus3.commit.committedInstType_0::FloatAdd           80      0.00%     38.43% # Class of committed instruction
system.switch_cpus3.commit.committedInstType_0::FloatCmp            0      0.00%     38.43% # Class of committed instruction
system.switch_cpus3.commit.committedInstType_0::FloatCvt            0      0.00%     38.43% # Class of committed instruction
system.switch_cpus3.commit.committedInstType_0::FloatMult            0      0.00%     38.43% # Class of committed instruction
system.switch_cpus3.commit.committedInstType_0::FloatMultAcc            0      0.00%     38.43% # Class of committed instruction
system.switch_cpus3.commit.committedInstType_0::FloatDiv            0      0.00%     38.43% # Class of committed instruction
system.switch_cpus3.commit.committedInstType_0::FloatMisc            0      0.00%     38.43% # Class of committed instruction
system.switch_cpus3.commit.committedInstType_0::FloatSqrt            0      0.00%     38.43% # Class of committed instruction
system.switch_cpus3.commit.committedInstType_0::SimdAdd            0      0.00%     38.43% # Class of committed instruction
system.switch_cpus3.commit.committedInstType_0::SimdAddAcc            0      0.00%     38.43% # Class of committed instruction
system.switch_cpus3.commit.committedInstType_0::SimdAlu       363030      0.44%     38.87% # Class of committed instruction
system.switch_cpus3.commit.committedInstType_0::SimdCmp            0      0.00%     38.87% # Class of committed instruction
system.switch_cpus3.commit.committedInstType_0::SimdCvt            0      0.00%     38.87% # Class of committed instruction
system.switch_cpus3.commit.committedInstType_0::SimdMisc          455      0.00%     38.87% # Class of committed instruction
system.switch_cpus3.commit.committedInstType_0::SimdMult            0      0.00%     38.87% # Class of committed instruction
system.switch_cpus3.commit.committedInstType_0::SimdMultAcc            0      0.00%     38.87% # Class of committed instruction
system.switch_cpus3.commit.committedInstType_0::SimdShift            0      0.00%     38.87% # Class of committed instruction
system.switch_cpus3.commit.committedInstType_0::SimdShiftAcc            0      0.00%     38.87% # Class of committed instruction
system.switch_cpus3.commit.committedInstType_0::SimdDiv            0      0.00%     38.87% # Class of committed instruction
system.switch_cpus3.commit.committedInstType_0::SimdSqrt            0      0.00%     38.87% # Class of committed instruction
system.switch_cpus3.commit.committedInstType_0::SimdFloatAdd     11485568     13.97%     52.85% # Class of committed instruction
system.switch_cpus3.commit.committedInstType_0::SimdFloatAlu            0      0.00%     52.85% # Class of committed instruction
system.switch_cpus3.commit.committedInstType_0::SimdFloatCmp            0      0.00%     52.85% # Class of committed instruction
system.switch_cpus3.commit.committedInstType_0::SimdFloatCvt      1751397      2.13%     54.98% # Class of committed instruction
system.switch_cpus3.commit.committedInstType_0::SimdFloatDiv       361982      0.44%     55.42% # Class of committed instruction
system.switch_cpus3.commit.committedInstType_0::SimdFloatMisc            0      0.00%     55.42% # Class of committed instruction
system.switch_cpus3.commit.committedInstType_0::SimdFloatMult     14545109     17.69%     73.11% # Class of committed instruction
system.switch_cpus3.commit.committedInstType_0::SimdFloatMultAcc            0      0.00%     73.11% # Class of committed instruction
system.switch_cpus3.commit.committedInstType_0::SimdFloatSqrt       482556      0.59%     73.70% # Class of committed instruction
system.switch_cpus3.commit.committedInstType_0::SimdReduceAdd            0      0.00%     73.70% # Class of committed instruction
system.switch_cpus3.commit.committedInstType_0::SimdReduceAlu            0      0.00%     73.70% # Class of committed instruction
system.switch_cpus3.commit.committedInstType_0::SimdReduceCmp            0      0.00%     73.70% # Class of committed instruction
system.switch_cpus3.commit.committedInstType_0::SimdFloatReduceAdd            0      0.00%     73.70% # Class of committed instruction
system.switch_cpus3.commit.committedInstType_0::SimdFloatReduceCmp            0      0.00%     73.70% # Class of committed instruction
system.switch_cpus3.commit.committedInstType_0::SimdAes            0      0.00%     73.70% # Class of committed instruction
system.switch_cpus3.commit.committedInstType_0::SimdAesMix            0      0.00%     73.70% # Class of committed instruction
system.switch_cpus3.commit.committedInstType_0::SimdSha1Hash            0      0.00%     73.70% # Class of committed instruction
system.switch_cpus3.commit.committedInstType_0::SimdSha1Hash2            0      0.00%     73.70% # Class of committed instruction
system.switch_cpus3.commit.committedInstType_0::SimdSha256Hash            0      0.00%     73.70% # Class of committed instruction
system.switch_cpus3.commit.committedInstType_0::SimdSha256Hash2            0      0.00%     73.70% # Class of committed instruction
system.switch_cpus3.commit.committedInstType_0::SimdShaSigma2            0      0.00%     73.70% # Class of committed instruction
system.switch_cpus3.commit.committedInstType_0::SimdShaSigma3            0      0.00%     73.70% # Class of committed instruction
system.switch_cpus3.commit.committedInstType_0::SimdPredAlu            0      0.00%     73.70% # Class of committed instruction
system.switch_cpus3.commit.committedInstType_0::MemRead      1256327      1.53%     75.23% # Class of committed instruction
system.switch_cpus3.commit.committedInstType_0::MemWrite        31296      0.04%     75.26% # Class of committed instruction
system.switch_cpus3.commit.committedInstType_0::FloatMemRead     16035343     19.51%     94.77% # Class of committed instruction
system.switch_cpus3.commit.committedInstType_0::FloatMemWrite      4297481      5.23%    100.00% # Class of committed instruction
system.switch_cpus3.commit.committedInstType_0::IprAccess            0      0.00%    100.00% # Class of committed instruction
system.switch_cpus3.commit.committedInstType_0::InstPrefetch            0      0.00%    100.00% # Class of committed instruction
system.switch_cpus3.commit.committedInstType_0::total     82200842                       # Class of committed instruction
system.switch_cpus3.commit.commitEligibleSamples      8143683                       # number cycles where commit BW limit reached
system.switch_cpus3.decode.idleCycles         1063683                       # Number of cycles decode is idle
system.switch_cpus3.decode.blockedCycles     80239474                       # Number of cycles decode is blocked
system.switch_cpus3.decode.runCycles          8695674                       # Number of cycles decode is running
system.switch_cpus3.decode.unblockCycles      2333103                       # Number of cycles decode is unblocking
system.switch_cpus3.decode.squashCycles          7367                       # Number of cycles decode is squashing
system.switch_cpus3.decode.branchResolved      1619061                       # Number of times decode resolved a  branch
system.switch_cpus3.decode.branchMispred          104                       # Number of times decode detected a branch misprediction
system.switch_cpus3.decode.decodedInsts      82472954                       # Number of instructions handled by decode
system.switch_cpus3.decode.squashedInsts          493                       # Number of squashed instructions handled by decode
system.switch_cpus3.dtb.rdAccesses           17322195                       # TLB accesses on read requests
system.switch_cpus3.dtb.wrAccesses            4329700                       # TLB accesses on write requests
system.switch_cpus3.dtb.rdMisses                38677                       # TLB misses on read requests
system.switch_cpus3.dtb.wrMisses                 8751                       # TLB misses on write requests
system.switch_cpus3.dtb.walker.power_state.pwrStateResidencyTicks::UNDEFINED 13975927937478                       # Cumulative time (in ticks) in various power states
system.switch_cpus3.fetch.icacheStallCycles        42968                       # Number of cycles fetch is stalled on an Icache miss
system.switch_cpus3.fetch.insts              58758301                       # Number of instructions fetch has processed
system.switch_cpus3.fetch.branches            3389104                       # Number of branches that fetch encountered
system.switch_cpus3.fetch.predictedBranches      1627398                       # Number of branches that fetch has predicted taken
system.switch_cpus3.fetch.cycles             92288894                       # Number of cycles fetch has run and was not squashing or blocked
system.switch_cpus3.fetch.squashCycles          14940                       # Number of cycles fetch has spent squashing
system.switch_cpus3.fetch.cacheLines          5111384                       # Number of cache lines fetched
system.switch_cpus3.fetch.icacheSquashes          197                       # Number of outstanding Icache misses that were squashed
system.switch_cpus3.fetch.nisnDist::samples     92339332                       # Number of instructions fetched each cycle (Total)
system.switch_cpus3.fetch.nisnDist::mean     0.895179                       # Number of instructions fetched each cycle (Total)
system.switch_cpus3.fetch.nisnDist::stdev     2.370029                       # Number of instructions fetched each cycle (Total)
system.switch_cpus3.fetch.nisnDist::underflows            0      0.00%      0.00% # Number of instructions fetched each cycle (Total)
system.switch_cpus3.fetch.nisnDist::0        78900893     85.45%     85.45% # Number of instructions fetched each cycle (Total)
system.switch_cpus3.fetch.nisnDist::1         1234353      1.34%     86.78% # Number of instructions fetched each cycle (Total)
system.switch_cpus3.fetch.nisnDist::2          600778      0.65%     87.43% # Number of instructions fetched each cycle (Total)
system.switch_cpus3.fetch.nisnDist::3         1041989      1.13%     88.56% # Number of instructions fetched each cycle (Total)
system.switch_cpus3.fetch.nisnDist::4          881935      0.96%     89.52% # Number of instructions fetched each cycle (Total)
system.switch_cpus3.fetch.nisnDist::5          509824      0.55%     90.07% # Number of instructions fetched each cycle (Total)
system.switch_cpus3.fetch.nisnDist::6          484878      0.53%     90.59% # Number of instructions fetched each cycle (Total)
system.switch_cpus3.fetch.nisnDist::7         1365188      1.48%     92.07% # Number of instructions fetched each cycle (Total)
system.switch_cpus3.fetch.nisnDist::8         7319494      7.93%    100.00% # Number of instructions fetched each cycle (Total)
system.switch_cpus3.fetch.nisnDist::overflows            0      0.00%    100.00% # Number of instructions fetched each cycle (Total)
system.switch_cpus3.fetch.nisnDist::min_value            0                       # Number of instructions fetched each cycle (Total)
system.switch_cpus3.fetch.nisnDist::max_value            8                       # Number of instructions fetched each cycle (Total)
system.switch_cpus3.fetch.nisnDist::total     92339332                       # Number of instructions fetched each cycle (Total)
system.switch_cpus3.fetch.branchRate         0.036678                       # Number of branch fetches per cycle
system.switch_cpus3.fetch.rate               0.635907                       # Number of inst fetches per cycle
system.switch_cpus3.itb.rdAccesses                  0                       # TLB accesses on read requests
system.switch_cpus3.itb.wrAccesses            5111384                       # TLB accesses on write requests
system.switch_cpus3.itb.rdMisses                    0                       # TLB misses on read requests
system.switch_cpus3.itb.wrMisses                   22                       # TLB misses on write requests
system.switch_cpus3.itb.walker.power_state.pwrStateResidencyTicks::UNDEFINED 13975927937478                       # Cumulative time (in ticks) in various power states
system.switch_cpus3.lsq0.forwLoads            1271004                       # Number of loads that had data forwarded from stores
system.switch_cpus3.lsq0.squashedLoads          43194                       # Number of loads squashed
system.switch_cpus3.lsq0.ignoredResponses           19                       # Number of memory responses ignored because the instruction is squashed
system.switch_cpus3.lsq0.memOrderViolation          539                       # Number of memory ordering violations
system.switch_cpus3.lsq0.squashedStores          7053                       # Number of stores squashed
system.switch_cpus3.lsq0.rescheduledLoads            8                       # Number of loads that were rescheduled
system.switch_cpus3.lsq0.blockedByCache            28                       # Number of times an access to memory failed due to the cache being blocked
system.switch_cpus3.power_state.pwrStateResidencyTicks::OFF  30769453080                       # Cumulative time (in ticks) in various power states
system.switch_cpus3.rename.squashCycles          7367                       # Number of cycles rename is squashing
system.switch_cpus3.rename.idleCycles         2090390                       # Number of cycles rename is idle
system.switch_cpus3.rename.blockCycles       37801073                       # Number of cycles rename is blocking
system.switch_cpus3.rename.serializeStallCycles            0                       # count of cycles rename stalledfor serializing inst
system.switch_cpus3.rename.runCycles          9928635                       # Number of cycles rename is running
system.switch_cpus3.rename.unblockCycles     42511836                       # Number of cycles rename is unblocking
system.switch_cpus3.rename.renamedInsts      82421914                       # Number of instructions processed by rename
system.switch_cpus3.rename.ROBFullEvents       210452                       # Number of times rename has blocked due to ROB full
system.switch_cpus3.rename.IQFullEvents       4157150                       # Number of times rename has blocked due to IQ full
system.switch_cpus3.rename.LQFullEvents       2406738                       # Number of times rename has blocked due to LQ full
system.switch_cpus3.rename.SQFullEvents      36018362                       # Number of times rename has blocked due to SQ full
system.switch_cpus3.rename.renamedOperands     97627574                       # Number of destination operands rename has renamed
system.switch_cpus3.rename.lookups          222536554                       # Number of register rename lookups that rename has made
system.switch_cpus3.rename.intLookups        70880750                       # Number of integer rename lookups
system.switch_cpus3.rename.fpLookups         96197330                       # Number of floating rename lookups
system.switch_cpus3.rename.committedMaps     97333214                       # Number of HB maps that are committed
system.switch_cpus3.rename.undoneMaps          294360                       # Number of HB maps that are undone due to squashing
system.switch_cpus3.rename.serializing              0                       # count of serializing insts renamed
system.switch_cpus3.rename.tempSerializing            0                       # count of temporary serializing insts renamed
system.switch_cpus3.rename.skidInsts         13379634                       # count of insts added to the skid buffer
system.switch_cpus3.rob.reads               166532637                       # The number of ROB reads
system.switch_cpus3.rob.writes              164743445                       # The number of ROB writes
system.switch_cpus3.thread0.numInsts         58418797                       # Number of Instructions committed
system.switch_cpus3.thread0.numOps           82200842                       # Number of Ops committed
system.switch_cpus3.thread0.numMemRefs              0                       # Number of Memory References
system.voltage_domain.voltage                       1                       # Voltage in Volts

---------- End Simulation Statistics   ----------
